  Page 1                                    Mon Apr 17 12:06:35 2023

  ******************************************************************
  *                           E P A N E T                          *
  *                   Hydraulic and Water Quality                  *
  *                   Analysis for Pipe Networks                   *
  *                         Version 2.2                            *
  ******************************************************************
  
  Analysis begun Mon Apr 17 12:06:35 2023

  Processing MSX input file C:\Users\jburkhar\OneDrive - Environmental Protection Agency (EPA)\Profile\Desktop\Git\msx_tools/new.msx
  
  
Page 1                                               EPANET-MSX 1.1
  
  ******************************************************************
  *                      E P A N E T  -  M S X                     *
  *                   Multi-Species Water Quality                  *
  *                   Analysis for Pipe  Networks                  *
  *                           Version 1.1                          *
  ******************************************************************
  
  MSX Builder - Python Generated File

  
  <<< Node 1 >>>
  
  Time             Nx        HOCL
  hr:min         MG/L        MG/L
  -------  ----------  ----------
     0:00    0.000000     0.88000
     0:00    0.000000     0.88000
     0:00    0.000000     0.88000
     0:00    0.000000     0.88000
     0:00    0.000000     0.88000
     0:00    0.000000     0.88000
     0:00    0.000000     0.88000
     0:00    0.000000     0.88000
     0:00    0.000000     0.88000
     0:00    0.000000     0.88000
     0:00    0.000000     0.88000
     0:00    0.000000     0.88000
     0:00    0.000000     0.87999
     0:00    0.000000     0.87999
     0:00    0.000000     0.87999
     0:00    0.000000     0.87999
     0:00    0.000000     0.87999
     0:00    0.000000     0.87831
     0:00    0.000000     0.87476
     0:00    0.000000     0.87476
     0:00    0.000000     0.87475
     0:00    0.000000     0.87475
     0:00    0.000000     0.87475
     0:00    0.000000     0.87475
     0:00    0.000000     0.87475
     0:00    0.000000     0.87475
     0:00    0.000000     0.87475
     0:00    0.000000     0.87475
     0:00    0.000000     0.87475
     0:00    0.000000     0.87475
     0:00    0.000000     0.87475
     0:00    0.000000     0.87475
     0:00    0.000000     0.87475
     0:00    0.000000     0.87475
     0:00    0.000000     0.87475
     0:00    0.000000     0.87475
     0:00    0.000000     0.87475
     0:00    0.000000     0.87475
     0:00    0.000000     0.87475
     0:00    0.000000     0.87475
     0:00    0.000000     0.87475
     0:00    0.000000     0.87475
     0:00    0.000000     0.87475
     0:00    0.000000     0.87474
     0:00    0.000000     0.87474
     0:00    0.000000     0.87474
     0:00    0.000000     0.87474
     0:00    0.000000     0.87474
     0:00    0.000000     0.87474
     0:00    0.000000     0.87474
     0:00    0.000000     0.87474
     0:00    0.000000     0.87474
     0:00    0.000000     0.87474
     0:00    0.000000     0.87474
     0:00    0.000000     0.87474
     0:00    0.000000     0.87474
     0:00    0.000000     0.87474
     0:00    0.000000     0.87474
     0:00    0.000000     0.87474
     0:00    0.000000     0.87474
     0:01    0.000000     0.87474
     0:01    0.000000     0.87474
     0:01    0.000000     0.87474
     0:01    0.000000     0.87474
     0:01    0.000000     0.87474
     0:01    0.000000     0.87474
     0:01    0.000000     0.87473
     0:01    0.000000     0.87473
     0:01    0.000000     0.87473
     0:01    0.000000     0.87473
     0:01    0.000000     0.87473
     0:01    0.000000     0.87473
     0:01    0.000000     0.87473
     0:01    0.000000     0.87473
     0:01    0.000000     0.87473
     0:01    0.000000     0.87473
     0:01    0.000000     0.87473
     0:01    0.000000     0.87473
     0:01    0.000000     0.87473
     0:01    0.000000     0.87473
     0:01    0.000000     0.87474
     0:01    0.000000     0.87475
     0:01    0.000000     0.87475
     0:01    0.000000     0.87475
     0:01    0.000000     0.87475
     0:01    0.000000     0.87475
     0:01    0.000000     0.87474
     0:01    0.000000     0.87474
     0:01    0.000000     0.87474
     0:01    0.000000     0.87474
     0:01    0.000000     0.87474
     0:01    0.000000     0.87474
     0:01    0.000000     0.87474
     0:01    0.000000     0.87474
     0:01    0.000000     0.87474
     0:01    0.000000     0.87474
     0:01    0.000000     0.87474
     0:01    0.000000     0.87474
     0:01    0.000000     0.87474
     0:01    0.000000     0.87474
     0:01    0.000000     0.87474
     0:01    0.000000     0.87474
     0:01    0.000000     0.87474
     0:01    0.000000     0.87474
     0:01    0.000000     0.87474
     0:01    0.000000     0.87474
     0:01    0.000000     0.87474
     0:01    0.000000     0.87474
     0:01    0.000000     0.87474
     0:01    0.000000     0.87474
     0:01    0.000000     0.87474
     0:01    0.000000     0.87474
     0:01    0.000000     0.87474
     0:01    0.000000     0.87474
     0:01    0.000000     0.87474
     0:01    0.000000     0.87474
     0:01    0.000000     0.87474
     0:01    0.000000     0.87474
     0:01    0.000000     0.87474
     0:01    0.000000     0.87474
     0:02    0.000000     0.87474
     0:02    0.000000     0.87474
     0:02    0.000000     0.87474
     0:02    0.000000     0.87474
     0:02    0.000000     0.87474
     0:02    0.000000     0.87474
     0:02    0.000000     0.87474
     0:02    0.000000     0.87474
     0:02    0.000000     0.87474
     0:02    0.000000     0.87474
     0:02    0.000000     0.87474
     0:02    0.000000     0.87474
     0:02    0.000000     0.87474
     0:02    0.000000     0.87474
     0:02    0.000000     0.87474
     0:02    0.000000     0.87474
     0:02    0.000000     0.87474
     0:02    0.000000     0.87474
     0:02    0.000000     0.87474
     0:02    0.000000     0.87474
     0:02    0.000000     0.87474
     0:02    0.000000     0.87474
     0:02    0.000000     0.87474
     0:02    0.000000     0.87474
     0:02    0.000000     0.87474
     0:02    0.000000     0.87474
     0:02    0.000000     0.87474
     0:02    0.000000     0.87474
     0:02    0.000000     0.87474
     0:02    0.000000     0.87474
     0:02    0.000000     0.87474
     0:02    0.000000     0.87474
     0:02    0.000000     0.87474
     0:02    0.000000     0.87474
     0:02    0.000000     0.87474
     0:02    0.000000     0.87474
     0:02    0.000000     0.87474
     0:02    0.000000     0.87474
     0:02    0.000000     0.87474
     0:02    0.000000     0.87474
     0:02    0.000000     0.87474
     0:02    0.000000     0.87474
     0:02    0.000000     0.87473
     0:02    0.000000     0.87473
     0:02    0.000000     0.87473
     0:02    0.000000     0.87473
     0:02    0.000000     0.87473
     0:02    0.000000     0.87473
     0:02    0.000000     0.87473
     0:02    0.000000     0.87473
     0:02    0.000000     0.87473
     0:02    0.000000     0.87473
     0:02    0.000000     0.87473
     0:02    0.000000     0.87473
     0:02    0.000000     0.87473
     0:02    0.000000     0.87473
     0:02    0.000000     0.87473
     0:02    0.000000     0.87473
     0:02    0.000000     0.87473
     0:02    0.000000     0.87473
     0:03    0.000000     0.87473
     0:03    0.000000     0.87473
     0:03    0.000000     0.87473
     0:03    0.000000     0.87473
     0:03    0.000000     0.87473
     0:03    0.000000     0.87473
     0:03    0.000000     0.87473
     0:03    0.000000     0.87473
     0:03    0.000000     0.87473
     0:03    0.000000     0.87473
     0:03    0.000000     0.87473
     0:03    0.000000     0.87473
     0:03    0.000000     0.87473
     0:03    0.000000     0.87473
     0:03    0.000000     0.87473
     0:03    0.000000     0.87473
     0:03    0.000000     0.87473
     0:03    0.000000     0.87473
     0:03    0.000000     0.87473
     0:03    0.000000     0.87473
     0:03    0.000000     0.87473
     0:03    0.000000     0.87473
     0:03    0.000000     0.87473
     0:03    0.000000     0.87473
     0:03    0.000000     0.87473
     0:03    0.000000     0.87473
     0:03    0.000000     0.87473
     0:03    0.000000     0.87473
     0:03    0.000000     0.87473
     0:03    0.000000     0.87473
     0:03    0.000000     0.87473
     0:03    0.000000     0.87473
     0:03    0.000000     0.87473
     0:03    0.000000     0.87473
     0:03    0.000000     0.87473
     0:03    0.000000     0.87473
     0:03    0.000000     0.87473
     0:03    0.000000     0.87473
     0:03    0.000000     0.87473
     0:03    0.000000     0.87473
     0:03    0.000000     0.87473
     0:03    0.000000     0.87473
     0:03    0.000000     0.87473
     0:03    0.000000     0.87473
     0:03    0.000000     0.87473
     0:03    0.000000     0.87473
     0:03    0.000000     0.87473
     0:03    0.000000     0.87473
     0:03    0.000000     0.87473
     0:03    0.000000     0.87473
     0:03    0.000000     0.87473
     0:03    0.000000     0.87473
     0:03    0.000000     0.87473
     0:03    0.000000     0.87473
     0:03    0.000000     0.87473
     0:03    0.000000     0.87473
     0:03    0.000000     0.87473
     0:03    0.000000     0.87473
     0:03    0.000000     0.87473
     0:03    0.000000     0.87473
     0:04    0.000000     0.87473
     0:04    0.000000     0.87473
     0:04    0.000000     0.87473
     0:04    0.000000     0.87473
     0:04    0.000000     0.87473
     0:04    0.000000     0.87473
     0:04    0.000000     0.87473
     0:04    0.000000     0.87473
     0:04    0.000000     0.87473
     0:04    0.000000     0.87473
     0:04    0.000000     0.87473
     0:04    0.000000     0.87473
     0:04    0.000000     0.87473
     0:04    0.000000     0.87473
     0:04    0.000000     0.87473
     0:04    0.000000     0.87473
     0:04    0.000000     0.87473
     0:04    0.000000     0.87473
     0:04    0.000000     0.87473
     0:04    0.000000     0.87473
     0:04    0.000000     0.87473
     0:04    0.000000     0.87473
     0:04    0.000000     0.87473
     0:04    0.000000     0.87473
     0:04    0.000000     0.87473
     0:04    0.000000     0.87473
     0:04    0.000000     0.87473
     0:04    0.000000     0.87473
     0:04    0.000000     0.87473
     0:04    0.000000     0.87473
     0:04    0.000000     0.87473
     0:04    0.000000     0.87473
     0:04    0.000000     0.87473
     0:04    0.000000     0.87473
     0:04    0.000000     0.87473
     0:04    0.000000     0.87473
     0:04    0.000000     0.87473
     0:04    0.000000     0.87473
     0:04    0.000000     0.87473
     0:04    0.000000     0.87473
     0:04    0.000000     0.87473
     0:04    0.000000     0.87473
     0:04    0.000000     0.87473
     0:04    0.000000     0.87473
     0:04    0.000000     0.87473
     0:04    0.000000     0.87473
     0:04    0.000000     0.87473
     0:04    0.000000     0.87473
     0:04    0.000000     0.87473
     0:04    0.000000     0.87473
     0:04    0.000000     0.87473
     0:04    0.000000     0.87473
     0:04    0.000000     0.87473
     0:04    0.000000     0.87473
     0:04    0.000000     0.87473
     0:04    0.000000     0.87473
     0:04    0.000000     0.87473
     0:04    0.000000     0.87473
     0:04    0.000000     0.87473
     0:04    0.000000     0.87473
     0:05    0.000000     0.87473
     0:05    0.000000     0.87473
     0:05    0.000000     0.87473
     0:05    0.000000     0.87473
     0:05    0.000000     0.87473
     0:05    0.000000     0.87473
     0:05    0.000000     0.87473
     0:05    0.000000     0.87473
     0:05    0.000000     0.87473
     0:05    0.000000     0.87473
     0:05    0.000000     0.87473
     0:05    0.000000     0.87473
     0:05    0.000000     0.87473
     0:05    0.000000     0.87473
     0:05    0.000000     0.87473
     0:05    0.000000     0.87473
     0:05    0.000000     0.87473
     0:05    0.000000     0.87473
     0:05    0.000000     0.87473
     0:05    0.000000     0.87473
     0:05    0.000000     0.87473
     0:05    0.000000     0.87473
     0:05    0.000000     0.87473
     0:05    0.000000     0.87473
     0:05    0.000000     0.87473
     0:05    0.000000     0.87473
     0:05    0.000000     0.87473
     0:05    0.000000     0.87473
     0:05    0.000000     0.87473
     0:05    0.000000     0.87473
     0:05    0.000000     0.87473
     0:05    0.000000     0.87473
     0:05    0.000000     0.87473
     0:05    0.000000     0.87473
     0:05    0.000000     0.87473
     0:05    0.000000     0.87473
     0:05    0.000000     0.87473
     0:05    0.000000     0.87473
     0:05    0.000000     0.87473
     0:05    0.000000     0.87473
     0:05    0.000000     0.87473
     0:05    0.000000     0.87473
     0:05    0.000000     0.87473
     0:05    0.000000     0.87473
     0:05    0.000000     0.87473
     0:05    0.000000     0.87473
     0:05    0.000000     0.87473
     0:05    0.000000     0.87473
     0:05    0.000000     0.87473
     0:05    0.000000     0.87473
     0:05    0.000000     0.87473
     0:05    0.000000     0.87473
     0:05    0.000000     0.87473
     0:05    0.000000     0.87473
     0:05    0.000000     0.87473
     0:05    0.000000     0.87473
     0:05    0.000000     0.87473
     0:05    0.000000     0.87473
     0:05    0.000000     0.87473
     0:05    0.000000     0.87473
     0:06    0.000000     0.87473
     0:06    0.000000     0.87473
     0:06    0.000000     0.87473
     0:06    0.000000     0.87473
     0:06    0.000000     0.87473
     0:06    0.000000     0.87473
     0:06    0.000000     0.87473
     0:06    0.000000     0.87473
     0:06    0.000000     0.87473
     0:06    0.000000     0.87473
     0:06    0.000000     0.87473
     0:06    0.000000     0.87473
     0:06    0.000000     0.87473
     0:06    0.000000     0.87473
     0:06    0.000000     0.87473
     0:06    0.000000     0.87473
     0:06    0.000000     0.87473
     0:06    0.000000     0.87473
     0:06    0.000000     0.87473
     0:06    0.000000     0.87473
     0:06    0.000000     0.87473
     0:06    0.000000     0.87473
     0:06    0.000000     0.87473
     0:06    0.000000     0.87473
     0:06    0.000000     0.87473
     0:06    0.000000     0.87473
     0:06    0.000000     0.87473
     0:06    0.000000     0.87473
     0:06    0.000000     0.87473
     0:06    0.000000     0.87473
     0:06    0.000000     0.87473
     0:06    0.000000     0.87473
     0:06    0.000000     0.87473
     0:06    0.000000     0.87473
     0:06    0.000000     0.87473
     0:06    0.000000     0.87473
     0:06    0.000000     0.87473
     0:06    0.000000     0.87473
     0:06    0.000000     0.87473
     0:06    0.000000     0.87473
     0:06    0.000000     0.87473
     0:06    0.000000     0.87473
     0:06    0.000000     0.87473
     0:06    0.000000     0.87473
     0:06    0.000000     0.87473
     0:06    0.000000     0.87473
     0:06    0.000000     0.87473
     0:06    0.000000     0.87473
     0:06    0.000000     0.87473
     0:06    0.000000     0.87473
     0:06    0.000000     0.87473
     0:06    0.000000     0.87473
     0:06    0.000000     0.87473
     0:06    0.000000     0.87473
     0:06    0.000000     0.87473
     0:06    0.000000     0.87473
     0:06    0.000000     0.87473
     0:06    0.000000     0.87473
     0:06    0.000000     0.87473
     0:06    0.000000     0.87473
     0:07    0.000000     0.87473
     0:07    0.000000     0.87473
     0:07    0.000000     0.87473
     0:07    0.000000     0.87473
     0:07    0.000000     0.87473
     0:07    0.000000     0.87473
     0:07    0.000000     0.87473
     0:07    0.000000     0.87473
     0:07    0.000000     0.87473
     0:07    0.000000     0.87473
     0:07    0.000000     0.87473
     0:07    0.000000     0.87473
     0:07    0.000000     0.87473
     0:07    0.000000     0.87473
     0:07    0.000000     0.87473
     0:07    0.000000     0.87473
     0:07    0.000000     0.87473
     0:07    0.000000     0.87473
     0:07    0.000000     0.87473
     0:07    0.000000     0.87473
     0:07    0.000000     0.87473
     0:07    0.000000     0.87473
     0:07    0.000000     0.87473
     0:07    0.000000     0.87473
     0:07    0.000000     0.87473
     0:07    0.000000     0.87473
     0:07    0.000000     0.87473
     0:07    0.000000     0.87473
     0:07    0.000000     0.87473
     0:07    0.000000     0.87473
     0:07    0.000000     0.87473
     0:07    0.000000     0.87473
     0:07    0.000000     0.87473
     0:07    0.000000     0.87473
     0:07    0.000000     0.87473
     0:07    0.000000     0.87473
     0:07    0.000000     0.87473
     0:07    0.000000     0.87473
     0:07    0.000000     0.87473
     0:07    0.000000     0.87473
     0:07    0.000000     0.87473
     0:07    0.000000     0.87473
     0:07    0.000000     0.87473
     0:07    0.000000     0.87473
     0:07    0.000000     0.87473
     0:07    0.000000     0.87473
     0:07    0.000000     0.87473
     0:07    0.000000     0.87473
     0:07    0.000000     0.87473
     0:07    0.000000     0.87473
     0:07    0.000000     0.87473
     0:07    0.000000     0.87473
     0:07    0.000000     0.87473
     0:07    0.000000     0.87473
     0:07    0.000000     0.87473
     0:07    0.000000     0.87473
     0:07    0.000000     0.87473
     0:07    0.000000     0.87473
     0:07    0.000000     0.87473
     0:07    0.000000     0.87473
     0:08    0.000000     0.87473
     0:08    0.000000     0.87473
     0:08    0.000000     0.87473
     0:08    0.000000     0.87473
     0:08    0.000000     0.87473
     0:08    0.000000     0.87473
     0:08    0.000000     0.87473
     0:08    0.000000     0.87473
     0:08    0.000000     0.87473
     0:08    0.000000     0.87473
     0:08    0.000000     0.87473
     0:08    0.000000     0.87473
     0:08    0.000000     0.87473
     0:08    0.000000     0.87473
     0:08    0.000000     0.87473
     0:08    0.000000     0.87473
     0:08    0.000000     0.87473
     0:08    0.000000     0.87473
     0:08    0.000000     0.87473
     0:08    0.000000     0.87473
     0:08    0.000000     0.87473
     0:08    0.000000     0.87473
     0:08    0.000000     0.87473
     0:08    0.000000     0.87473
     0:08    0.000000     0.87473
     0:08    0.000000     0.87473
     0:08    0.000000     0.87473
     0:08    0.000000     0.87473
     0:08    0.000000     0.87473
     0:08    0.000000     0.87473
     0:08    0.000000     0.87473
     0:08    0.000000     0.87473
     0:08    0.000000     0.87473
     0:08    0.000000     0.87473
     0:08    0.000000     0.87473
     0:08    0.000000     0.87473
     0:08    0.000000     0.87473
     0:08    0.000000     0.87473
     0:08    0.000000     0.87473
     0:08    0.000000     0.87473
     0:08    0.000000     0.87473
     0:08    0.000000     0.87473
     0:08    0.000000     0.87473
     0:08    0.000000     0.87473
     0:08    0.000000     0.87473
     0:08    0.000000     0.87473
     0:08    0.000000     0.87473
     0:08    0.000000     0.87473
     0:08    0.000000     0.87473
     0:08    0.000000     0.87473
     0:08    0.000000     0.87473
     0:08    0.000000     0.87473
     0:08    0.000000     0.87473
     0:08    0.000000     0.87473
     0:08    0.000000     0.87473
     0:08    0.000000     0.87473
     0:08    0.000000     0.87473
     0:08    0.000000     0.87473
     0:08    0.000000     0.87473
     0:08    0.000000     0.87473
     0:09    0.000000     0.87473
     0:09    0.000000     0.87473
     0:09    0.000000     0.87473
     0:09    0.000000     0.87473
     0:09    0.000000     0.87473
     0:09    0.000000     0.87473
     0:09    0.000000     0.87473
     0:09    0.000000     0.87473
     0:09    0.000000     0.87473
     0:09    0.000000     0.87473
     0:09    0.000000     0.87473
     0:09    0.000000     0.87473
     0:09    0.000000     0.87473
     0:09    0.000000     0.87473
     0:09    0.000000     0.87473
     0:09    0.000000     0.87473
     0:09    0.000000     0.87473
     0:09    0.000000     0.87473
     0:09    0.000000     0.87473
     0:09    0.000000     0.87473
     0:09    0.000000     0.87473
     0:09    0.000000     0.87473
     0:09    0.000000     0.87473
     0:09    0.000000     0.87473
     0:09    0.000000     0.87473
     0:09    0.000000     0.87473
     0:09    0.000000     0.87473
     0:09    0.000000     0.87473
     0:09    0.000000     0.87473
     0:09    0.000000     0.87473
     0:09    0.000000     0.87473
     0:09    0.000000     0.87473
     0:09    0.000000     0.87473
     0:09    0.000000     0.87473
     0:09    0.000000     0.87473
     0:09    0.000000     0.87473
     0:09    0.000000     0.87473
     0:09    0.000000     0.87473
     0:09    0.000000     0.87473
     0:09    0.000000     0.87473
     0:09    0.000000     0.87473
     0:09    0.000000     0.87473
     0:09    0.000000     0.87473
     0:09    0.000000     0.87473
     0:09    0.000000     0.87473
     0:09    0.000000     0.87473
     0:09    0.000000     0.87473
     0:09    0.000000     0.87473
     0:09    0.000000     0.87473
     0:09    0.000000     0.87473
     0:09    0.000000     0.87473
     0:09    0.000000     0.87473
     0:09    0.000000     0.87473
     0:09    0.000000     0.87473
     0:09    0.000000     0.87473
     0:09    0.000000     0.87473
     0:09    0.000000     0.87473
     0:09    0.000000     0.87473
     0:09    0.000000     0.87473
     0:09    0.000000     0.87473
     0:10    0.000000     0.87473
     0:10    0.000000     0.87473
     0:10    0.000000     0.87473
     0:10    0.000000     0.87473
     0:10    0.000000     0.87473
     0:10    0.000000     0.87473
     0:10    0.000000     0.87473
     0:10    0.000000     0.87473
     0:10    0.000000     0.87473
     0:10    0.000000     0.87473
     0:10    0.000000     0.87473
     0:10    0.000000     0.87473
     0:10    0.000000     0.87473
     0:10    0.000000     0.87473
     0:10    0.000000     0.87473
     0:10    0.000000     0.87473
     0:10    0.000000     0.87473
     0:10    0.000000     0.87473
     0:10    0.000000     0.87473
     0:10    0.000000     0.87473
     0:10    0.000000     0.87473
     0:10    0.000000     0.87473
     0:10    0.000000     0.87473
     0:10    0.000000     0.87473
     0:10    0.000000     0.87473
     0:10    0.000000     0.87473
     0:10    0.000000     0.87473
     0:10    0.000000     0.87473
     0:10    0.000000     0.87473
     0:10    0.000000     0.87473
     0:10    0.000000     0.87473
     0:10    0.000000     0.87473
     0:10    0.000000     0.87473
     0:10    0.000000     0.87473
     0:10    0.000000     0.87473
     0:10    0.000000     0.87473
     0:10    0.000000     0.87473
     0:10    0.000000     0.87473
     0:10    0.000000     0.87473
     0:10    0.000000     0.87473
     0:10    0.000000     0.87473
     0:10    0.000000     0.87473
     0:10    0.000000     0.87473
     0:10    0.000000     0.87473
     0:10    0.000000     0.87473
     0:10    0.000000     0.87473
     0:10    0.000000     0.87473
     0:10    0.000000     0.87473
     0:10    0.000000     0.87473
     0:10    0.000000     0.87473
     0:10    0.000000     0.87473
     0:10    0.000000     0.87473
     0:10    0.000000     0.87473
     0:10    0.000000     0.87473
     0:10    0.000000     0.87473
     0:10    0.000000     0.87473
     0:10    0.000000     0.87473
     0:10    0.000000     0.87473
     0:10    0.000000     0.87473
     0:10    0.000000     0.87473
     0:11    0.000000     0.87473
     0:11    0.000000     0.87473
     0:11    0.000000     0.87473
     0:11    0.000000     0.87473
     0:11    0.000000     0.87473
     0:11    0.000000     0.87473
     0:11    0.000000     0.87473
     0:11    0.000000     0.87473
     0:11    0.000000     0.87473
     0:11    0.000000     0.87473
     0:11    0.000000     0.87473
     0:11    0.000000     0.87473
     0:11    0.000000     0.87473
     0:11    0.000000     0.87473
     0:11    0.000000     0.87473
     0:11    0.000000     0.87473
     0:11    0.000000     0.87473
     0:11    0.000000     0.87473
     0:11    0.000000     0.87473
     0:11    0.000000     0.87473
     0:11    0.000000     0.87473
     0:11    0.000000     0.87473
     0:11    0.000000     0.87473
     0:11    0.000000     0.87473
     0:11    0.000000     0.87473
     0:11    0.000000     0.87473
     0:11    0.000000     0.87473
     0:11    0.000000     0.87473
     0:11    0.000000     0.87473
     0:11    0.000000     0.87473
     0:11    0.000000     0.87473
     0:11    0.000000     0.87473
     0:11    0.000000     0.87473
     0:11    0.000000     0.87473
     0:11    0.000000     0.87473
     0:11    0.000000     0.87473
     0:11    0.000000     0.87473
     0:11    0.000000     0.87473
     0:11    0.000000     0.87473
     0:11    0.000000     0.87473
     0:11    0.000000     0.87473
     0:11    0.000000     0.87473
     0:11    0.000000     0.87473
     0:11    0.000000     0.87473
     0:11    0.000000     0.87473
     0:11    0.000000     0.87473
     0:11    0.000000     0.87473
     0:11    0.000000     0.87473
     0:11    0.000000     0.87473
     0:11    0.000000     0.87473
     0:11    0.000000     0.87473
     0:11    0.000000     0.87473
     0:11    0.000000     0.87473
     0:11    0.000000     0.87473
     0:11    0.000000     0.87473
     0:11    0.000000     0.87473
     0:11    0.000000     0.87473
     0:11    0.000000     0.87473
     0:11    0.000000     0.87473
     0:11    0.000000     0.87473
     0:12    0.000000     0.87473
     0:12    0.000000     0.87473
     0:12    0.000000     0.87473
     0:12    0.000000     0.87473
     0:12    0.000000     0.87473
     0:12    0.000000     0.87473
     0:12    0.000000     0.87473
     0:12    0.000000     0.87473
     0:12    0.000000     0.87473
     0:12    0.000000     0.87473
     0:12    0.000000     0.87473
     0:12    0.000000     0.87473
     0:12    0.000000     0.87473
     0:12    0.000000     0.87473
     0:12    0.000000     0.87473
     0:12    0.000000     0.87473
     0:12    0.000000     0.87473
     0:12    0.000000     0.87473
     0:12    0.000000     0.87473
     0:12    0.000000     0.87473
     0:12    0.000000     0.87473
     0:12    0.000000     0.87473
     0:12    0.000000     0.87473
     0:12    0.000000     0.87473
     0:12    0.000000     0.87473
     0:12    0.000000     0.87473
     0:12    0.000000     0.87473
     0:12    0.000000     0.87473
     0:12    0.000000     0.87473
     0:12    0.000000     0.87473
     0:12    0.000000     0.87473
     0:12    0.000000     0.87473
     0:12    0.000000     0.87473
     0:12    0.000000     0.87473
     0:12    0.000000     0.87473
     0:12    0.000000     0.87473
     0:12    0.000000     0.87473
     0:12    0.000000     0.87473
     0:12    0.000000     0.87473
     0:12    0.000000     0.87473
     0:12    0.000000     0.87473
     0:12    0.000000     0.87473
     0:12    0.000000     0.87473
     0:12    0.000000     0.87473
     0:12    0.000000     0.87473
     0:12    0.000000     0.87473
     0:12    0.000000     0.87473
     0:12    0.000000     0.87473
     0:12    0.000000     0.87473
     0:12    0.000000     0.87473
     0:12    0.000000     0.87473
     0:12    0.000000     0.87473
     0:12    0.000000     0.87473
     0:12    0.000000     0.87473
     0:12    0.000000     0.87473
     0:12    0.000000     0.87473
     0:12    0.000000     0.87473
     0:12    0.000000     0.87473
     0:12    0.000000     0.87473
     0:12    0.000000     0.87473
     0:13    0.000000     0.87473
     0:13    0.000000     0.87473
     0:13    0.000000     0.87473
     0:13    0.000000     0.87473
     0:13    0.000000     0.87473
     0:13    0.000000     0.87473
     0:13    0.000000     0.87473
     0:13    0.000000     0.87473
     0:13    0.000000     0.87473
     0:13    0.000000     0.87473
     0:13    0.000000     0.87473
     0:13    0.000000     0.87473
     0:13    0.000000     0.87473
     0:13    0.000000     0.87473
     0:13    0.000000     0.87473
     0:13    0.000000     0.87473
     0:13    0.000000     0.87473
     0:13    0.000000     0.87473
     0:13    0.000000     0.87473
     0:13    0.000000     0.87473
     0:13    0.000000     0.87473
     0:13    0.000000     0.87473
     0:13    0.000000     0.87473
     0:13    0.000000     0.87473
     0:13    0.000000     0.87473
     0:13    0.000000     0.87473
     0:13    0.000000     0.87473
     0:13    0.000000     0.87473
     0:13    0.000000     0.87473
     0:13    0.000000     0.87473
     0:13    0.000000     0.87473
     0:13    0.000000     0.87473
     0:13    0.000000     0.87473
     0:13    0.000000     0.87473
     0:13    0.000000     0.87473
     0:13    0.000000     0.87473
     0:13    0.000000     0.87473
     0:13    0.000000     0.87473
     0:13    0.000000     0.87473
     0:13    0.000000     0.87473
     0:13    0.000000     0.87473
     0:13    0.000000     0.87473
     0:13    0.000000     0.87473
     0:13    0.000000     0.87473
     0:13    0.000000     0.87473
     0:13    0.000000     0.87473
     0:13    0.000000     0.87473
     0:13    0.000000     0.87473
     0:13    0.000000     0.87473
     0:13    0.000000     0.87473
     0:13    0.000000     0.87473
     0:13    0.000000     0.87473
     0:13    0.000000     0.87473
     0:13    0.000000     0.87473
     0:13    0.000000     0.87473
     0:13    0.000000     0.87473
     0:13    0.000000     0.87473
     0:13    0.000000     0.87473
     0:13    0.000000     0.87473
     0:13    0.000000     0.87473
     0:14    0.000000     0.87473
     0:14    0.000000     0.87473
     0:14    0.000000     0.87473
     0:14    0.000000     0.87473
     0:14    0.000000     0.87473
     0:14    0.000000     0.87473
     0:14    0.000000     0.87473
     0:14    0.000000     0.87473
     0:14    0.000000     0.87473
     0:14    0.000000     0.87473
     0:14    0.000000     0.87473
     0:14    0.000000     0.87473
     0:14    0.000000     0.87473
     0:14    0.000000     0.87473
     0:14    0.000000     0.87473
     0:14    0.000000     0.87473
     0:14    0.000000     0.87473
     0:14    0.000000     0.87473
     0:14    0.000000     0.87473
     0:14    0.000000     0.87473
     0:14    0.000000     0.87473
     0:14    0.000000     0.87473
     0:14    0.000000     0.87473
     0:14    0.000000     0.87473
     0:14    0.000000     0.87473
     0:14    0.000000     0.87473
     0:14    0.000000     0.87473
     0:14    0.000000     0.87473
     0:14    0.000000     0.87473
     0:14    0.000000     0.87473
     0:14    0.000000     0.87473
     0:14    0.000000     0.87473
     0:14    0.000000     0.87473
     0:14    0.000000     0.87473
     0:14    0.000000     0.87473
     0:14    0.000000     0.87473
     0:14    0.000000     0.87473
     0:14    0.000000     0.87473
     0:14    0.000000     0.87473
     0:14    0.000000     0.87473
     0:14    0.000000     0.87473
     0:14    0.000000     0.87473
     0:14    0.000000     0.87473
     0:14    0.000000     0.87473
     0:14    0.000000     0.87473
     0:14    0.000000     0.87473
     0:14    0.000000     0.87473
     0:14    0.000000     0.87473
     0:14    0.000000     0.87473
     0:14    0.000000     0.87473
     0:14    0.000000     0.87473
     0:14    0.000000     0.87473
     0:14    0.000000     0.87473
     0:14    0.000000     0.87473
     0:14    0.000000     0.87473
     0:14    0.000000     0.87473
     0:14    0.000000     0.87473
     0:14    0.000000     0.87473
     0:14    0.000000     0.87473
     0:14    0.000000     0.87473
     0:15    0.000000     0.87473
     0:15    0.000000     0.87473
     0:15    0.000000     0.87473
     0:15    0.000000     0.87473
     0:15    0.000000     0.87473
     0:15    0.000000     0.87473
     0:15    0.000000     0.87473
     0:15    0.000000     0.87473
     0:15    0.000000     0.87473
     0:15    0.000000     0.87473
     0:15    0.000000     0.87473
     0:15    0.000000     0.87473
     0:15    0.000000     0.87473
     0:15    0.000000     0.87473
     0:15    0.000000     0.87473
     0:15    0.000000     0.87473
     0:15    0.000000     0.87473
     0:15    0.000000     0.87473
     0:15    0.000000     0.87473
     0:15    0.000000     0.87473
     0:15    0.000000     0.87473
     0:15    0.000000     0.87473
     0:15    0.000000     0.87473
     0:15    0.000000     0.87473
     0:15    0.000000     0.87473
     0:15    0.000000     0.87473
     0:15    0.000000     0.87473
     0:15    0.000000     0.87473
     0:15    0.000000     0.87473
     0:15    0.000000     0.87473
     0:15    0.000000     0.87473
     0:15    0.000000     0.87473
     0:15    0.000000     0.87473
     0:15    0.000000     0.87473
     0:15    0.000000     0.87473
     0:15    0.000000     0.87473
     0:15    0.000000     0.87473
     0:15    0.000000     0.87473
     0:15    0.000000     0.87473
     0:15    0.000000     0.87473
     0:15    0.000000     0.87473
     0:15    0.000000     0.87473
     0:15    0.000000     0.87473
     0:15    0.000000     0.87473
     0:15    0.000000     0.87473
     0:15    0.000000     0.87473
     0:15    0.000000     0.87473
     0:15    0.000000     0.87473
     0:15    0.000000     0.87473
     0:15    0.000000     0.87473
     0:15    0.000000     0.87473
     0:15    0.000000     0.87473
     0:15    0.000000     0.87473
     0:15    0.000000     0.87473
     0:15    0.000000     0.87473
     0:15    0.000000     0.87473
     0:15    0.000000     0.87473
     0:15    0.000000     0.87473
     0:15    0.000000     0.87473
     0:15    0.000000     0.87473
     0:16    0.000000     0.87473
     0:16    0.000000     0.87473
     0:16    0.000000     0.87473
     0:16    0.000000     0.87473
     0:16    0.000000     0.87473
     0:16    0.000000     0.87473
     0:16    0.000000     0.87473
     0:16    0.000000     0.87473
     0:16    0.000000     0.87473
     0:16    0.000000     0.87473
     0:16    0.000000     0.87473
     0:16    0.000000     0.87473
     0:16    0.000000     0.87473
     0:16    0.000000     0.87473
     0:16    0.000000     0.87473
     0:16    0.000000     0.87473
     0:16    0.000000     0.87473
     0:16    0.000000     0.87473
     0:16    0.000000     0.87473
     0:16    0.000000     0.87473
     0:16    0.000000     0.87473
     0:16    0.000000     0.87473
     0:16    0.000000     0.87473
     0:16    0.000000     0.87473
     0:16    0.000000     0.87473
     0:16    0.000000     0.87473
     0:16    0.000000     0.87473
     0:16    0.000000     0.87473
     0:16    0.000000     0.87473
     0:16    0.000000     0.87473
     0:16    0.000000     0.87473
     0:16    0.000000     0.87473
     0:16    0.000000     0.87473
     0:16    0.000000     0.87473
     0:16    0.000000     0.87473
     0:16    0.000000     0.87473
     0:16    0.000000     0.87473
     0:16    0.000000     0.87473
     0:16    0.000000     0.87473
     0:16    0.000000     0.87473
     0:16    0.000000     0.87473
     0:16    0.000000     0.87473
     0:16    0.000000     0.87473
     0:16    0.000000     0.87473
     0:16    0.000000     0.87473
     0:16    0.000000     0.87473
     0:16    0.000000     0.87473
     0:16    0.000000     0.87473
     0:16    0.000000     0.87473
     0:16    0.000000     0.87473
     0:16    0.000000     0.87473
     0:16    0.000000     0.87473
     0:16    0.000000     0.87473
     0:16    0.000000     0.87473
     0:16    0.000000     0.87473
     0:16    0.000000     0.87473
     0:16    0.000000     0.87473
     0:16    0.000000     0.87473
     0:16    0.000000     0.87473
     0:16    0.000000     0.87473
     0:17    0.000000     0.87473
     0:17    0.000000     0.87473
     0:17    0.000000     0.87473
     0:17    0.000000     0.87473
     0:17    0.000000     0.87473
     0:17    0.000000     0.87473
     0:17    0.000000     0.87473
     0:17    0.000000     0.87473
     0:17    0.000000     0.87473
     0:17    0.000000     0.87473
     0:17    0.000000     0.87473
     0:17    0.000000     0.87473
     0:17    0.000000     0.87473
     0:17    0.000000     0.87473
     0:17    0.000000     0.87473
     0:17    0.000000     0.87473
     0:17    0.000000     0.87473
     0:17    0.000000     0.87473
     0:17    0.000000     0.87473
     0:17    0.000000     0.87473
     0:17    0.000000     0.87473
     0:17    0.000000     0.87473
     0:17    0.000000     0.87473
     0:17    0.000000     0.87473
     0:17    0.000000     0.87473
     0:17    0.000000     0.87473
     0:17    0.000000     0.87473
     0:17    0.000000     0.87473
     0:17    0.000000     0.87473
     0:17    0.000000     0.87473
     0:17    0.000000     0.87473
     0:17    0.000000     0.87473
     0:17    0.000000     0.87473
     0:17    0.000000     0.87473
     0:17    0.000000     0.87473
     0:17    0.000000     0.87473
     0:17    0.000000     0.87473
     0:17    0.000000     0.87473
     0:17    0.000000     0.87473
     0:17    0.000000     0.87473
     0:17    0.000000     0.87473
     0:17    0.000000     0.87473
     0:17    0.000000     0.87473
     0:17    0.000000     0.87473
     0:17    0.000000     0.87473
     0:17    0.000000     0.87473
     0:17    0.000000     0.87473
     0:17    0.000000     0.87473
     0:17    0.000000     0.87473
     0:17    0.000000     0.87473
     0:17    0.000000     0.87473
     0:17    0.000000     0.87473
     0:17    0.000000     0.87473
     0:17    0.000000     0.87473
     0:17    0.000000     0.87473
     0:17    0.000000     0.87473
     0:17    0.000000     0.87473
     0:17    0.000000     0.87473
     0:17    0.000000     0.87473
     0:17    0.000000     0.87473
     0:18    0.000000     0.87473
     0:18    0.000000     0.87473
     0:18    0.000000     0.87473
     0:18    0.000000     0.87473
     0:18    0.000000     0.87473
     0:18    0.000000     0.87473
     0:18    0.000000     0.87473
     0:18    0.000000     0.87473
     0:18    0.000000     0.87473
     0:18    0.000000     0.87473
     0:18    0.000000     0.87473
     0:18    0.000000     0.87473
     0:18    0.000000     0.87473
     0:18    0.000000     0.87473
     0:18    0.000000     0.87473
     0:18    0.000000     0.87473
     0:18    0.000000     0.87473
     0:18    0.000000     0.87473
     0:18    0.000000     0.87473
     0:18    0.000000     0.87473
     0:18    0.000000     0.87473
     0:18    0.000000     0.87473
     0:18    0.000000     0.87473
     0:18    0.000000     0.87473
     0:18    0.000000     0.87473
     0:18    0.000000     0.87473
     0:18    0.000000     0.87473
     0:18    0.000000     0.87473
     0:18    0.000000     0.87473
     0:18    0.000000     0.87473
     0:18    0.000000     0.87473
     0:18    0.000000     0.87473
     0:18    0.000000     0.87473
     0:18    0.000000     0.87473
     0:18    0.000000     0.87473
     0:18    0.000000     0.87473
     0:18    0.000000     0.87473
     0:18    0.000000     0.87473
     0:18    0.000000     0.87473
     0:18    0.000000     0.87473
     0:18    0.000000     0.87473
     0:18    0.000000     0.87473
     0:18    0.000000     0.87473
     0:18    0.000000     0.87473
     0:18    0.000000     0.87473
     0:18    0.000000     0.87473
     0:18    0.000000     0.87473
     0:18    0.000000     0.87473
     0:18    0.000000     0.87473
     0:18    0.000000     0.87473
     0:18    0.000000     0.87473
     0:18    0.000000     0.87473
     0:18    0.000000     0.87473
     0:18    0.000000     0.87473
     0:18    0.000000     0.87473
     0:18    0.000000     0.87473
     0:18    0.000000     0.87473
     0:18    0.000000     0.87473
     0:18    0.000000     0.87473
     0:18    0.000000     0.87473
     0:19    0.000000     0.87473
     0:19    0.000000     0.87473
     0:19    0.000000     0.87473
     0:19    0.000000     0.87473
     0:19    0.000000     0.87473
     0:19    0.000000     0.87473
     0:19    0.000000     0.87473
     0:19    0.000000     0.87473
     0:19    0.000000     0.87473
     0:19    0.000000     0.87473
     0:19    0.000000     0.87473
     0:19    0.000000     0.87473
     0:19    0.000000     0.87473
     0:19    0.000000     0.87473
     0:19    0.000000     0.87473
     0:19    0.000000     0.87473
     0:19    0.000000     0.87473
     0:19    0.000000     0.87473
     0:19    0.000000     0.87473
     0:19    0.000000     0.87473
     0:19    0.000000     0.87473
     0:19    0.000000     0.87473
     0:19    0.000000     0.87473
     0:19    0.000000     0.87473
     0:19    0.000000     0.87473
     0:19    0.000000     0.87473
     0:19    0.000000     0.87473
     0:19    0.000000     0.87473
     0:19    0.000000     0.87473
     0:19    0.000000     0.87473
     0:19    0.000000     0.87473
     0:19    0.000000     0.87473
     0:19    0.000000     0.87473
     0:19    0.000000     0.87473
     0:19    0.000000     0.87473
     0:19    0.000000     0.87473
     0:19    0.000000     0.87473
     0:19    0.000000     0.87473
     0:19    0.000000     0.87473
     0:19    0.000000     0.87473
     0:19    0.000000     0.87473
     0:19    0.000000     0.87473
     0:19    0.000000     0.87473
     0:19    0.000000     0.87473
     0:19    0.000000     0.87473
     0:19    0.000000     0.87473
     0:19    0.000000     0.87473
     0:19    0.000000     0.87473
     0:19    0.000000     0.87473
     0:19    0.000000     0.87473
     0:19    0.000000     0.87473
     0:19    0.000000     0.87473
     0:19    0.000000     0.87473
     0:19    0.000000     0.87473
     0:19    0.000000     0.87473
     0:19    0.000000     0.87473
     0:19    0.000000     0.87473
     0:19    0.000000     0.87473
     0:19    0.000000     0.87473
     0:19    0.000000     0.87473
     0:20    0.000000     0.87473
     0:20    0.000000     0.87996
     0:20    0.000000     0.87996
     0:20    0.000000     0.87996
     0:20    0.000000     0.87996
     0:20    0.000000     0.87996
     0:20    0.000000     0.87996
     0:20    0.000000     0.87996
     0:20    0.000000     0.87996
     0:20    0.000000     0.87996
     0:20    0.000000     0.87996
     0:20    0.000000     0.87996
     0:20    0.000000     0.87996
     0:20    0.000000     0.87996
     0:20    0.000000     0.87996
     0:20    0.000000     0.87996
     0:20    0.000000     0.87996
     0:20    0.000000     0.87996
     0:20    0.000000     0.87996
     0:20    0.000000     0.87996
     0:20    0.000000     0.87996
     0:20    0.000000     0.87996
     0:20    0.000000     0.87996
     0:20    0.000000     0.87996
     0:20    0.000000     0.87996
     0:20    0.000000     0.87996
     0:20    0.000000     0.87996
     0:20    0.000000     0.87996
     0:20    0.000000     0.87996
     0:20    0.000000     0.87996
     0:20    0.000000     0.87996
     0:20    0.000000     0.87996
     0:20    0.000000     0.87996
     0:20    0.000000     0.87996
     0:20    0.000000     0.87996
     0:20    0.000000     0.87996
     0:20    0.000000     0.87996
     0:20    0.000000     0.87996
     0:20    0.000000     0.87996
     0:20    0.000000     0.87996
     0:20    0.000000     0.87996
     0:20    0.000000     0.87996
     0:20    0.000000     0.87996
     0:20    0.000000     0.87996
     0:20    0.000000     0.87996
     0:20    0.000000     0.87996
     0:20    0.000000     0.87996
     0:20    0.000000     0.87996
     0:20    0.000000     0.87996
     0:20    0.000000     0.87996
     0:20    0.000000     0.87996
     0:20    0.000000     0.87996
     0:20    0.000000     0.87996
     0:20    0.000000     0.87996
     0:20    0.000000     0.87996
     0:20    0.000000     0.87996
     0:20    0.000000     0.87996
     0:20    0.000000     0.87996
     0:20    0.000000     0.87996
     0:20    0.000000     0.87996
     0:21    0.000000     0.87996
     0:21    0.000000     0.87996
     0:21    0.000000     0.87996
     0:21    0.000000     0.87996
     0:21    0.000000     0.87996
     0:21    0.000000     0.87996
     0:21    0.000000     0.87996
     0:21    0.000000     0.87996
     0:21    0.000000     0.87997
     0:21    0.000000     0.87997
     0:21    0.000000     0.87997
     0:21    0.000000     0.87997
     0:21    0.000000     0.87997
     0:21    0.000000     0.87997
     0:21    0.000000     0.87997
     0:21    0.000000     0.87997
     0:21    0.000000     0.87997
     0:21    0.000000     0.87997
     0:21    0.000000     0.87997
     0:21    0.000000     0.87997
     0:21    0.000000     0.87997
     0:21    0.000000     0.87997
     0:21    0.000000     0.87997
     0:21    0.000000     0.87997
     0:21    0.000000     0.87997
     0:21    0.000000     0.87997
     0:21    0.000000     0.87997
     0:21    0.000000     0.87997
     0:21    0.000000     0.87997
     0:21    0.000000     0.87997
     0:21    0.000000     0.87997
     0:21    0.000000     0.87997
     0:21    0.000000     0.87997
     0:21    0.000000     0.87997
     0:21    0.000000     0.87997
     0:21    0.000000     0.87997
     0:21    0.000000     0.87997
     0:21    0.000000     0.87997
     0:21    0.000000     0.87997
     0:21    0.000000     0.87997
     0:21    0.000000     0.87997
     0:21    0.000000     0.87997
     0:21    0.000000     0.87997
     0:21    0.000000     0.87997
     0:21    0.000000     0.87997
     0:21    0.000000     0.87997
     0:21    0.000000     0.87997
     0:21    0.000000     0.87997
     0:21    0.000000     0.87997
     0:21    0.000000     0.87997
     0:21    0.000000     0.87997
     0:21    0.000000     0.87997
     0:21    0.000000     0.87997
     0:21    0.000000     0.87997
     0:21    0.000000     0.87997
     0:21    0.000000     0.87997
     0:21    0.000000     0.87997
     0:21    0.000000     0.87997
     0:21    0.000000     0.87997
     0:21    0.000000     0.87997
     0:22    0.000000     0.87997
     0:22    0.000000     0.87997
     0:22    0.000000     0.87997
     0:22    0.000000     0.87997
     0:22    0.000000     0.87997
     0:22    0.000000     0.87997
     0:22    0.000000     0.87997
     0:22    0.000000     0.87997
     0:22    0.000000     0.87997
     0:22    0.000000     0.87997
     0:22    0.000000     0.87997
     0:22    0.000000     0.87997
     0:22    0.000000     0.87997
     0:22    0.000000     0.87997
     0:22    0.000000     0.87997
     0:22    0.000000     0.87997
     0:22    0.000000     0.87997
     0:22    0.000000     0.87997
     0:22    0.000000     0.87997
     0:22    0.000000     0.87997
     0:22    0.000000     0.87997
     0:22    0.000000     0.87997
     0:22    0.000000     0.87997
     0:22    0.000000     0.87997
     0:22    0.000000     0.87997
     0:22    0.000000     0.87997
     0:22    0.000000     0.87997
     0:22    0.000000     0.87997
     0:22    0.000000     0.87997
     0:22    0.000000     0.87997
     0:22    0.000000     0.87997
     0:22    0.000000     0.87997
     0:22    0.000000     0.87997
     0:22    0.000000     0.87997
     0:22    0.000000     0.87997
     0:22    0.000000     0.87997
     0:22    0.000000     0.87997
     0:22    0.000000     0.87997
     0:22    0.000000     0.87997
     0:22    0.000000     0.87997
     0:22    0.000000     0.87997
     0:22    0.000000     0.87997
     0:22    0.000000     0.87997
     0:22    0.000000     0.87997
     0:22    0.000000     0.87997
     0:22    0.000000     0.87997
     0:22    0.000000     0.87997
     0:22    0.000000     0.87997
     0:22    0.000000     0.87997
     0:22    0.000000     0.87997
     0:22    0.000000     0.87997
     0:22    0.000000     0.87997
     0:22    0.000000     0.87997
     0:22    0.000000     0.87997
     0:22    0.000000     0.87997
     0:22    0.000000     0.87997
     0:22    0.000000     0.87997
     0:22    0.000000     0.87997
     0:22    0.000000     0.87997
     0:22    0.000000     0.87997
     0:23    0.000000     0.87997
     0:23    0.000000     0.87997
     0:23    0.000000     0.87997
     0:23    0.000000     0.87997
     0:23    0.000000     0.87997
     0:23    0.000000     0.87997
     0:23    0.000000     0.87997
     0:23    0.000000     0.87997
     0:23    0.000000     0.87997
     0:23    0.000000     0.87997
     0:23    0.000000     0.87997
     0:23    0.000000     0.87997
     0:23    0.000000     0.87997
     0:23    0.000000     0.87997
     0:23    0.000000     0.87997
     0:23    0.000000     0.87997
     0:23    0.000000     0.87997
     0:23    0.000000     0.87997
     0:23    0.000000     0.87997
     0:23    0.000000     0.87997
     0:23    0.000000     0.87997
     0:23    0.000000     0.87997
     0:23    0.000000     0.87997
     0:23    0.000000     0.87997
     0:23    0.000000     0.87997
     0:23    0.000000     0.87997
     0:23    0.000000     0.87997
     0:23    0.000000     0.87997
     0:23    0.000000     0.87997
     0:23    0.000000     0.87997
     0:23    0.000000     0.87997
     0:23    0.000000     0.87997
     0:23    0.000000     0.87997
     0:23    0.000000     0.87997
     0:23    0.000000     0.87997
     0:23    0.000000     0.87997
     0:23    0.000000     0.87997
     0:23    0.000000     0.87997
     0:23    0.000000     0.87997
     0:23    0.000000     0.87997
     0:23    0.000000     0.87997
     0:23    0.000000     0.87997
     0:23    0.000000     0.87997
     0:23    0.000000     0.87997
     0:23    0.000000     0.87997
     0:23    0.000000     0.87997
     0:23    0.000000     0.87997
     0:23    0.000000     0.87997
     0:23    0.000000     0.87997
     0:23    0.000000     0.87997
     0:23    0.000000     0.87997
     0:23    0.000000     0.87997
     0:23    0.000000     0.87997
     0:23    0.000000     0.87997
     0:23    0.000000     0.87997
     0:23    0.000000     0.87997
     0:23    0.000000     0.87997
     0:23    0.000000     0.87997
     0:23    0.000000     0.87997
     0:23    0.000000     0.87997
     0:24    0.000000     0.87997
     0:24    0.000000     0.87997
     0:24    0.000000     0.87997
     0:24    0.000000     0.87997
     0:24    0.000000     0.87997
     0:24    0.000000     0.87997
     0:24    0.000000     0.87997
     0:24    0.000000     0.87997
     0:24    0.000000     0.87997
     0:24    0.000000     0.87997
     0:24    0.000000     0.87997
     0:24    0.000000     0.87997
     0:24    0.000000     0.87997
     0:24    0.000000     0.87997
     0:24    0.000000     0.87997
     0:24    0.000000     0.87997
     0:24    0.000000     0.87997
     0:24    0.000000     0.87997
     0:24    0.000000     0.87997
     0:24    0.000000     0.87997
     0:24    0.000000     0.87997
     0:24    0.000000     0.87997
     0:24    0.000000     0.87997
     0:24    0.000000     0.87997
     0:24    0.000000     0.87997
     0:24    0.000000     0.87997
     0:24    0.000000     0.87997
     0:24    0.000000     0.87997
     0:24    0.000000     0.87997
     0:24    0.000000     0.87997
     0:24    0.000000     0.87997
     0:24    0.000000     0.87997
     0:24    0.000000     0.87997
     0:24    0.000000     0.87997
     0:24    0.000000     0.87997
     0:24    0.000000     0.87997
     0:24    0.000000     0.87997
     0:24    0.000000     0.87997
     0:24    0.000000     0.87997
     0:24    0.000000     0.87997
     0:24    0.000000     0.87997
     0:24    0.000000     0.87997
     0:24    0.000000     0.87997
     0:24    0.000000     0.87997
     0:24    0.000000     0.87997
     0:24    0.000000     0.87997
     0:24    0.000000     0.87997
     0:24    0.000000     0.87997
     0:24    0.000000     0.87997
     0:24    0.000000     0.87997
     0:24    0.000000     0.87997
     0:24    0.000000     0.87997
     0:24    0.000000     0.87997
     0:24    0.000000     0.87997
     0:24    0.000000     0.87997
     0:24    0.000000     0.87997
     0:24    0.000000     0.87997
     0:24    0.000000     0.87997
     0:24    0.000000     0.87997
     0:24    0.000000     0.87997
     0:25    0.000000     0.87997
     0:25    0.000000     0.87997
     0:25    0.000000     0.87997
     0:25    0.000000     0.87997
     0:25    0.000000     0.87997
     0:25    0.000000     0.87997
     0:25    0.000000     0.87997
     0:25    0.000000     0.87997
     0:25    0.000000     0.87997
     0:25    0.000000     0.87997
     0:25    0.000000     0.87997
     0:25    0.000000     0.87997
     0:25    0.000000     0.87997
     0:25    0.000000     0.87997
     0:25    0.000000     0.87997
     0:25    0.000000     0.87997
     0:25    0.000000     0.87997
     0:25    0.000000     0.87997
     0:25    0.000000     0.87997
     0:25    0.000000     0.87997
     0:25    0.000000     0.87997
     0:25    0.000000     0.87997
     0:25    0.000000     0.87997
     0:25    0.000000     0.87997
     0:25    0.000000     0.87997
     0:25    0.000000     0.87997
     0:25    0.000000     0.87997
     0:25    0.000000     0.87997
     0:25    0.000000     0.87997
     0:25    0.000000     0.87997
     0:25    0.000000     0.87997
     0:25    0.000000     0.87997
     0:25    0.000000     0.87997
     0:25    0.000000     0.87997
     0:25    0.000000     0.87997
     0:25    0.000000     0.87997
     0:25    0.000000     0.87997
     0:25    0.000000     0.87997
     0:25    0.000000     0.87997
     0:25    0.000000     0.87997
     0:25    0.000000     0.87997
     0:25    0.000000     0.87997
     0:25    0.000000     0.87997
     0:25    0.000000     0.87997
     0:25    0.000000     0.87997
     0:25    0.000000     0.87997
     0:25    0.000000     0.87997
     0:25    0.000000     0.87997
     0:25    0.000000     0.87997
     0:25    0.000000     0.87997
     0:25    0.000000     0.87997
     0:25    0.000000     0.87997
     0:25    0.000000     0.87997
     0:25    0.000000     0.87997
     0:25    0.000000     0.87997
     0:25    0.000000     0.87997
     0:25    0.000000     0.87997
     0:25    0.000000     0.87997
     0:25    0.000000     0.87997
     0:25    0.000000     0.87997
     0:26    0.000000     0.87997
     0:26    0.000000     0.87997
     0:26    0.000000     0.87997
     0:26    0.000000     0.87997
     0:26    0.000000     0.87997
     0:26    0.000000     0.87997
     0:26    0.000000     0.87997
     0:26    0.000000     0.87997
     0:26    0.000000     0.87997
     0:26    0.000000     0.87997
     0:26    0.000000     0.87997
     0:26    0.000000     0.87997
     0:26    0.000000     0.87997
     0:26    0.000000     0.87997
     0:26    0.000000     0.87997
     0:26    0.000000     0.87997
     0:26    0.000000     0.87997
     0:26    0.000000     0.87997
     0:26    0.000000     0.87997
     0:26    0.000000     0.87997
     0:26    0.000000     0.87997
     0:26    0.000000     0.87997
     0:26    0.000000     0.87997
     0:26    0.000000     0.87997
     0:26    0.000000     0.87997
     0:26    0.000000     0.87997
     0:26    0.000000     0.87997
     0:26    0.000000     0.87997
     0:26    0.000000     0.87997
     0:26    0.000000     0.87997
     0:26    0.000000     0.87997
     0:26    0.000000     0.87997
     0:26    0.000000     0.87997
     0:26    0.000000     0.87997
     0:26    0.000000     0.87997
     0:26    0.000000     0.87997
     0:26    0.000000     0.87997
     0:26    0.000000     0.87997
     0:26    0.000000     0.87997
     0:26    0.000000     0.87997
     0:26    0.000000     0.87997
     0:26    0.000000     0.87997
     0:26    0.000000     0.87997
     0:26    0.000000     0.87997
     0:26    0.000000     0.87997
     0:26    0.000000     0.87997
     0:26    0.000000     0.87997
     0:26    0.000000     0.87997
     0:26    0.000000     0.87997
     0:26    0.000000     0.87997
     0:26    0.000000     0.87997
     0:26    0.000000     0.87997
     0:26    0.000000     0.87997
     0:26    0.000000     0.87997
     0:26    0.000000     0.87997
     0:26    0.000000     0.87997
     0:26    0.000000     0.87997
     0:26    0.000000     0.87997
     0:26    0.000000     0.87997
     0:26    0.000000     0.87997
     0:27    0.000000     0.87997
     0:27    0.000000     0.87997
     0:27    0.000000     0.87997
     0:27    0.000000     0.87997
     0:27    0.000000     0.87997
     0:27    0.000000     0.87997
     0:27    0.000000     0.87997
     0:27    0.000000     0.87997
     0:27    0.000000     0.87997
     0:27    0.000000     0.87997
     0:27    0.000000     0.87997
     0:27    0.000000     0.87997
     0:27    0.000000     0.87997
     0:27    0.000000     0.87997
     0:27    0.000000     0.87997
     0:27    0.000000     0.87997
     0:27    0.000000     0.87997
     0:27    0.000000     0.87997
     0:27    0.000000     0.87997
     0:27    0.000000     0.87997
     0:27    0.000000     0.87997
     0:27    0.000000     0.87997
     0:27    0.000000     0.87997
     0:27    0.000000     0.87997
     0:27    0.000000     0.87997
     0:27    0.000000     0.87997
     0:27    0.000000     0.87997
     0:27    0.000000     0.87997
     0:27    0.000000     0.87997
     0:27    0.000000     0.87997
     0:27    0.000000     0.87997
     0:27    0.000000     0.87997
     0:27    0.000000     0.87997
     0:27    0.000000     0.87997
     0:27    0.000000     0.87997
     0:27    0.000000     0.87997
     0:27    0.000000     0.87997
     0:27    0.000000     0.87997
     0:27    0.000000     0.87997
     0:27    0.000000     0.87997
     0:27    0.000000     0.87997
     0:27    0.000000     0.87997
     0:27    0.000000     0.87997
     0:27    0.000000     0.87997
     0:27    0.000000     0.87997
     0:27    0.000000     0.87997
     0:27    0.000000     0.87997
     0:27    0.000000     0.87997
     0:27    0.000000     0.87997
     0:27    0.000000     0.87997
     0:27    0.000000     0.87997
     0:27    0.000000     0.87997
     0:27    0.000000     0.87997
     0:27    0.000000     0.87997
     0:27    0.000000     0.87997
     0:27    0.000000     0.87997
     0:27    0.000000     0.87997
     0:27    0.000000     0.87997
     0:27    0.000000     0.87997
     0:27    0.000000     0.87997
     0:28    0.000000     0.87997
     0:28    0.000000     0.87997
     0:28    0.000000     0.87997
     0:28    0.000000     0.87997
     0:28    0.000000     0.87997
     0:28    0.000000     0.87997
     0:28    0.000000     0.87997
     0:28    0.000000     0.87997
     0:28    0.000000     0.87997
     0:28    0.000000     0.87997
     0:28    0.000000     0.87997
     0:28    0.000000     0.87997
     0:28    0.000000     0.87997
     0:28    0.000000     0.87997
     0:28    0.000000     0.87997
     0:28    0.000000     0.87997
     0:28    0.000000     0.87997
     0:28    0.000000     0.87997
     0:28    0.000000     0.87997
     0:28    0.000000     0.87997
     0:28    0.000000     0.87997
     0:28    0.000000     0.87997
     0:28    0.000000     0.87997
     0:28    0.000000     0.87997
     0:28    0.000000     0.87997
     0:28    0.000000     0.87997
     0:28    0.000000     0.87997
     0:28    0.000000     0.87997
     0:28    0.000000     0.87997
     0:28    0.000000     0.87997
     0:28    0.000000     0.87997
     0:28    0.000000     0.87997
     0:28    0.000000     0.87997
     0:28    0.000000     0.87997
     0:28    0.000000     0.87997
     0:28    0.000000     0.87997
     0:28    0.000000     0.87997
     0:28    0.000000     0.87997
     0:28    0.000000     0.87997
     0:28    0.000000     0.87997
     0:28    0.000000     0.87997
     0:28    0.000000     0.87997
     0:28    0.000000     0.87997
     0:28    0.000000     0.87997
     0:28    0.000000     0.87997
     0:28    0.000000     0.87997
     0:28    0.000000     0.87997
     0:28    0.000000     0.87997
     0:28    0.000000     0.87997
     0:28    0.000000     0.87997
     0:28    0.000000     0.87997
     0:28    0.000000     0.87997
     0:28    0.000000     0.87997
     0:28    0.000000     0.87997
     0:28    0.000000     0.87997
     0:28    0.000000     0.87997
     0:28    0.000000     0.87997
     0:28    0.000000     0.87997
     0:28    0.000000     0.87997
     0:28    0.000000     0.87997
     0:29    0.000000     0.87997
     0:29    0.000000     0.87997
     0:29    0.000000     0.87997
     0:29    0.000000     0.87997
     0:29    0.000000     0.87997
     0:29    0.000000     0.87997
     0:29    0.000000     0.87997
     0:29    0.000000     0.87997
     0:29    0.000000     0.87997
     0:29    0.000000     0.87997
     0:29    0.000000     0.87997
     0:29    0.000000     0.87997
     0:29    0.000000     0.87997
     0:29    0.000000     0.87997
     0:29    0.000000     0.87997
     0:29    0.000000     0.87997
     0:29    0.000000     0.87997
     0:29    0.000000     0.87997
     0:29    0.000000     0.87997
     0:29    0.000000     0.87997
     0:29    0.000000     0.87997
     0:29    0.000000     0.87997
     0:29    0.000000     0.87997
     0:29    0.000000     0.87997
     0:29    0.000000     0.87997
     0:29    0.000000     0.87997
     0:29    0.000000     0.87997
     0:29    0.000000     0.87997
     0:29    0.000000     0.87997
     0:29    0.000000     0.87997
     0:29    0.000000     0.87997
     0:29    0.000000     0.87997
     0:29    0.000000     0.87997
     0:29    0.000000     0.87997
     0:29    0.000000     0.87997
     0:29    0.000000     0.87997
     0:29    0.000000     0.87997
     0:29    0.000000     0.87997
     0:29    0.000000     0.87997
     0:29    0.000000     0.87997
     0:29    0.000000     0.87997
     0:29    0.000000     0.87997
     0:29    0.000000     0.87997
     0:29    0.000000     0.87997
     0:29    0.000000     0.87997
     0:29    0.000000     0.87997
     0:29    0.000000     0.87997
     0:29    0.000000     0.87997
     0:29    0.000000     0.87997
     0:29    0.000000     0.87997
     0:29    0.000000     0.87997
     0:29    0.000000     0.87997
     0:29    0.000000     0.87997
     0:29    0.000000     0.87997
     0:29    0.000000     0.87997
     0:29    0.000000     0.87997
     0:29    0.000000     0.87997
     0:29    0.000000     0.87997
     0:29    0.000000     0.87997
     0:29    0.000000     0.87997
     0:30    0.000000     0.87997
     0:30    0.000000     0.87997
     0:30    0.000000     0.87997
     0:30    0.000000     0.87997
     0:30    0.000000     0.87997
     0:30    0.000000     0.87997
     0:30    0.000000     0.87997
     0:30    0.000000     0.87997
     0:30    0.000000     0.87997
     0:30    0.000000     0.87997
     0:30    0.000000     0.87997
     0:30    0.000000     0.87997
     0:30    0.000000     0.87997
     0:30    0.000000     0.87997
     0:30    0.000000     0.87997
     0:30    0.000000     0.87997
     0:30    0.000000     0.87997
     0:30    0.000000     0.87997
     0:30    0.000000     0.87997
     0:30    0.000000     0.87997
     0:30    0.000000     0.87997
     0:30    0.000000     0.87997
     0:30    0.000000     0.87997
     0:30    0.000000     0.87997
     0:30    0.000000     0.87997
     0:30    0.000000     0.87997
     0:30    0.000000     0.87997
     0:30    0.000000     0.87997
     0:30    0.000000     0.87997
     0:30    0.000000     0.87997
     0:30    0.000000     0.87997
     0:30    0.000000     0.87997
     0:30    0.000000     0.87997
     0:30    0.000000     0.87997
     0:30    0.000000     0.87997
     0:30    0.000000     0.87997
     0:30    0.000000     0.87997
     0:30    0.000000     0.87997
     0:30    0.000000     0.87997
     0:30    0.000000     0.87997
     0:30    0.000000     0.87997
     0:30    0.000000     0.87997
     0:30    0.000000     0.87997
     0:30    0.000000     0.87997
     0:30    0.000000     0.87997
     0:30    0.000000     0.87997
     0:30    0.000000     0.87997
     0:30    0.000000     0.87997
     0:30    0.000000     0.87997
     0:30    0.000000     0.87997
     0:30    0.000000     0.87997
     0:30    0.000000     0.87997
     0:30    0.000000     0.87997
     0:30    0.000000     0.87997
     0:30    0.000000     0.87997
     0:30    0.000000     0.87997
     0:30    0.000000     0.87997
     0:30    0.000000     0.87997
     0:30    0.000000     0.87997
     0:30    0.000000     0.87997
     0:31    0.000000     0.87997
     0:31    0.000000     0.87997
     0:31    0.000000     0.87997
     0:31    0.000000     0.87997
     0:31    0.000000     0.87997
     0:31    0.000000     0.87997
     0:31    0.000000     0.87997
     0:31    0.000000     0.87997
     0:31    0.000000     0.87997
     0:31    0.000000     0.87997
     0:31    0.000000     0.87997
     0:31    0.000000     0.87997
     0:31    0.000000     0.87997
     0:31    0.000000     0.87997
     0:31    0.000000     0.87997
     0:31    0.000000     0.87997
     0:31    0.000000     0.87997
     0:31    0.000000     0.87997
     0:31    0.000000     0.87997
     0:31    0.000000     0.87997
     0:31    0.000000     0.87997
     0:31    0.000000     0.87997
     0:31    0.000000     0.87997
     0:31    0.000000     0.87997
     0:31    0.000000     0.87997
     0:31    0.000000     0.87997
     0:31    0.000000     0.87997
     0:31    0.000000     0.87997
     0:31    0.000000     0.87997
     0:31    0.000000     0.87997
     0:31    0.000000     0.87997
     0:31    0.000000     0.87997
     0:31    0.000000     0.87997
     0:31    0.000000     0.87997
     0:31    0.000000     0.87997
     0:31    0.000000     0.87997
     0:31    0.000000     0.87997
     0:31    0.000000     0.87997
     0:31    0.000000     0.87997
     0:31    0.000000     0.87997
     0:31    0.000000     0.87997
     0:31    0.000000     0.87997
     0:31    0.000000     0.87997
     0:31    0.000000     0.87997
     0:31    0.000000     0.87997
     0:31    0.000000     0.87997
     0:31    0.000000     0.87997
     0:31    0.000000     0.87997
     0:31    0.000000     0.87997
     0:31    0.000000     0.87997
     0:31    0.000000     0.87997
     0:31    0.000000     0.87997
     0:31    0.000000     0.87997
     0:31    0.000000     0.87997
     0:31    0.000000     0.87997
     0:31    0.000000     0.87997
     0:31    0.000000     0.87997
     0:31    0.000000     0.87997
     0:31    0.000000     0.87997
     0:31    0.000000     0.87997
     0:32    0.000000     0.87997
     0:32    0.000000     0.87997
     0:32    0.000000     0.87997
     0:32    0.000000     0.87997
     0:32    0.000000     0.87997
     0:32    0.000000     0.87997
     0:32    0.000000     0.87997
     0:32    0.000000     0.87997
     0:32    0.000000     0.87997
     0:32    0.000000     0.87997
     0:32    0.000000     0.87997
     0:32    0.000000     0.87997
     0:32    0.000000     0.87997
     0:32    0.000000     0.87997
     0:32    0.000000     0.87997
     0:32    0.000000     0.87997
     0:32    0.000000     0.87997
     0:32    0.000000     0.87997
     0:32    0.000000     0.87997
     0:32    0.000000     0.87997
     0:32    0.000000     0.87997
     0:32    0.000000     0.87997
     0:32    0.000000     0.87997
     0:32    0.000000     0.87997
     0:32    0.000000     0.87997
     0:32    0.000000     0.87997
     0:32    0.000000     0.87997
     0:32    0.000000     0.87997
     0:32    0.000000     0.87997
     0:32    0.000000     0.87997
     0:32    0.000000     0.87997
     0:32    0.000000     0.87997
     0:32    0.000000     0.87997
     0:32    0.000000     0.87997
     0:32    0.000000     0.87997
     0:32    0.000000     0.87997
     0:32    0.000000     0.87997
     0:32    0.000000     0.87997
     0:32    0.000000     0.87997
     0:32    0.000000     0.87997
     0:32    0.000000     0.87997
     0:32    0.000000     0.87997
     0:32    0.000000     0.87997
     0:32    0.000000     0.87997
     0:32    0.000000     0.87997
     0:32    0.000000     0.87997
     0:32    0.000000     0.87997
     0:32    0.000000     0.87997
     0:32    0.000000     0.87997
     0:32    0.000000     0.87997
     0:32    0.000000     0.87997
     0:32    0.000000     0.87997
     0:32    0.000000     0.87997
     0:32    0.000000     0.87997
     0:32    0.000000     0.87997
     0:32    0.000000     0.87997
     0:32    0.000000     0.87997
     0:32    0.000000     0.87997
     0:32    0.000000     0.87997
     0:32    0.000000     0.87997
     0:33    0.000000     0.87997
     0:33    0.000000     0.87997
     0:33    0.000000     0.87997
     0:33    0.000000     0.87997
     0:33    0.000000     0.87997
     0:33    0.000000     0.87997
     0:33    0.000000     0.87997
     0:33    0.000000     0.87997
     0:33    0.000000     0.87997
     0:33    0.000000     0.87997
     0:33    0.000000     0.87997
     0:33    0.000000     0.87997
     0:33    0.000000     0.87997
     0:33    0.000000     0.87997
     0:33    0.000000     0.87997
     0:33    0.000000     0.87997
     0:33    0.000000     0.87997
     0:33    0.000000     0.87997
     0:33    0.000000     0.87997
     0:33    0.000000     0.87997
     0:33    0.000000     0.87997
     0:33    0.000000     0.87997
     0:33    0.000000     0.87997
     0:33    0.000000     0.87997
     0:33    0.000000     0.87997
     0:33    0.000000     0.87997
     0:33    0.000000     0.87997
     0:33    0.000000     0.87997
     0:33    0.000000     0.87997
     0:33    0.000000     0.87997
     0:33    0.000000     0.87997
     0:33    0.000000     0.87997
     0:33    0.000000     0.87997
     0:33    0.000000     0.87997
     0:33    0.000000     0.87997
     0:33    0.000000     0.87997
     0:33    0.000000     0.87997
     0:33    0.000000     0.87997
     0:33    0.000000     0.87997
     0:33    0.000000     0.87997
     0:33    0.000000     0.87997
     0:33    0.000000     0.87997
     0:33    0.000000     0.87997
     0:33    0.000000     0.87997
     0:33    0.000000     0.87997
     0:33    0.000000     0.87997
     0:33    0.000000     0.87997
     0:33    0.000000     0.87997
     0:33    0.000000     0.87997
     0:33    0.000000     0.87997
     0:33    0.000000     0.87997
     0:33    0.000000     0.87997
     0:33    0.000000     0.87997
     0:33    0.000000     0.87997
     0:33    0.000000     0.87997
     0:33    0.000000     0.87997
     0:33    0.000000     0.87997
     0:33    0.000000     0.87997
     0:33    0.000000     0.87997
     0:33    0.000000     0.87997
     0:34    0.000000     0.87997
     0:34    0.000000     0.87997
     0:34    0.000000     0.87997
     0:34    0.000000     0.87997
     0:34    0.000000     0.87997
     0:34    0.000000     0.87997
     0:34    0.000000     0.87997
     0:34    0.000000     0.87997
     0:34    0.000000     0.87997
     0:34    0.000000     0.87997
     0:34    0.000000     0.87997
     0:34    0.000000     0.87997
     0:34    0.000000     0.87997
     0:34    0.000000     0.87997
     0:34    0.000000     0.87997
     0:34    0.000000     0.87997
     0:34    0.000000     0.87997
     0:34    0.000000     0.87997
     0:34    0.000000     0.87997
     0:34    0.000000     0.87997
     0:34    0.000000     0.87997
     0:34    0.000000     0.87997
     0:34    0.000000     0.87997
     0:34    0.000000     0.87997
     0:34    0.000000     0.87997
     0:34    0.000000     0.87997
     0:34    0.000000     0.87997
     0:34    0.000000     0.87997
     0:34    0.000000     0.87997
     0:34    0.000000     0.87997
     0:34    0.000000     0.87997
     0:34    0.000000     0.87997
     0:34    0.000000     0.87997
     0:34    0.000000     0.87997
     0:34    0.000000     0.87997
     0:34    0.000000     0.87997
     0:34    0.000000     0.87997
     0:34    0.000000     0.87997
     0:34    0.000000     0.87997
     0:34    0.000000     0.87997
     0:34    0.000000     0.87997
     0:34    0.000000     0.87997
     0:34    0.000000     0.87997
     0:34    0.000000     0.87997
     0:34    0.000000     0.87997
     0:34    0.000000     0.87997
     0:34    0.000000     0.87997
     0:34    0.000000     0.87997
     0:34    0.000000     0.87997
     0:34    0.000000     0.87997
     0:34    0.000000     0.87997
     0:34    0.000000     0.87997
     0:34    0.000000     0.87997
     0:34    0.000000     0.87997
     0:34    0.000000     0.87997
     0:34    0.000000     0.87997
     0:34    0.000000     0.87997
     0:34    0.000000     0.87997
     0:34    0.000000     0.87997
     0:34    0.000000     0.87997
     0:35    0.000000     0.87997
     0:35    0.000000     0.87997
     0:35    0.000000     0.87997
     0:35    0.000000     0.87997
     0:35    0.000000     0.87997
     0:35    0.000000     0.87997
     0:35    0.000000     0.87997
     0:35    0.000000     0.87997
     0:35    0.000000     0.87997
     0:35    0.000000     0.87997
     0:35    0.000000     0.87997
     0:35    0.000000     0.87997
     0:35    0.000000     0.87997
     0:35    0.000000     0.87997
     0:35    0.000000     0.87997
     0:35    0.000000     0.87997
     0:35    0.000000     0.87997
     0:35    0.000000     0.87997
     0:35    0.000000     0.87997
     0:35    0.000000     0.87997
     0:35    0.000000     0.87997
     0:35    0.000000     0.87997
     0:35    0.000000     0.87997
     0:35    0.000000     0.87997
     0:35    0.000000     0.87997
     0:35    0.000000     0.87997
     0:35    0.000000     0.87997
     0:35    0.000000     0.87997
     0:35    0.000000     0.87997
     0:35    0.000000     0.87997
     0:35    0.000000     0.87997
     0:35    0.000000     0.87997
     0:35    0.000000     0.87997
     0:35    0.000000     0.87997
     0:35    0.000000     0.87997
     0:35    0.000000     0.87997
     0:35    0.000000     0.87997
     0:35    0.000000     0.87997
     0:35    0.000000     0.87997
     0:35    0.000000     0.87997
     0:35    0.000000     0.87997
     0:35    0.000000     0.87997
     0:35    0.000000     0.87997
     0:35    0.000000     0.87997
     0:35    0.000000     0.87997
     0:35    0.000000     0.87997
     0:35    0.000000     0.87997
     0:35    0.000000     0.87997
     0:35    0.000000     0.87997
     0:35    0.000000     0.87997
     0:35    0.000000     0.87997
     0:35    0.000000     0.87997
     0:35    0.000000     0.87997
     0:35    0.000000     0.87997
     0:35    0.000000     0.87997
     0:35    0.000000     0.87997
     0:35    0.000000     0.87997
     0:35    0.000000     0.87997
     0:35    0.000000     0.87997
     0:35    0.000000     0.87997
     0:36    0.000000     0.87997
     0:36    0.000000     0.87997
     0:36    0.000000     0.87997
     0:36    0.000000     0.87997
     0:36    0.000000     0.87997
     0:36    0.000000     0.87997
     0:36    0.000000     0.87997
     0:36    0.000000     0.87997
     0:36    0.000000     0.87997
     0:36    0.000000     0.87997
     0:36    0.000000     0.87997
     0:36    0.000000     0.87997
     0:36    0.000000     0.87997
     0:36    0.000000     0.87997
     0:36    0.000000     0.87997
     0:36    0.000000     0.87997
     0:36    0.000000     0.87997
     0:36    0.000000     0.87997
     0:36    0.000000     0.87997
     0:36    0.000000     0.87997
     0:36    0.000000     0.87997
     0:36    0.000000     0.87997
     0:36    0.000000     0.87997
     0:36    0.000000     0.87997
     0:36    0.000000     0.87997
     0:36    0.000000     0.87997
     0:36    0.000000     0.87997
     0:36    0.000000     0.87997
     0:36    0.000000     0.87997
     0:36    0.000000     0.87997
     0:36    0.000000     0.87997
     0:36    0.000000     0.87997
     0:36    0.000000     0.87997
     0:36    0.000000     0.87997
     0:36    0.000000     0.87997
     0:36    0.000000     0.87997
     0:36    0.000000     0.87997
     0:36    0.000000     0.87997
     0:36    0.000000     0.87997
     0:36    0.000000     0.87997
     0:36    0.000000     0.87997
     0:36    0.000000     0.87997
     0:36    0.000000     0.87997
     0:36    0.000000     0.87997
     0:36    0.000000     0.87997
     0:36    0.000000     0.87997
     0:36    0.000000     0.87997
     0:36    0.000000     0.87997
     0:36    0.000000     0.87997
     0:36    0.000000     0.87997
     0:36    0.000000     0.87997
     0:36    0.000000     0.87997
     0:36    0.000000     0.87997
     0:36    0.000000     0.87997
     0:36    0.000000     0.87997
     0:36    0.000000     0.87997
     0:36    0.000000     0.87997
     0:36    0.000000     0.87997
     0:36    0.000000     0.87997
     0:36    0.000000     0.87997
     0:37    0.000000     0.87997
     0:37    0.000000     0.87997
     0:37    0.000000     0.87997
     0:37    0.000000     0.87997
     0:37    0.000000     0.87997
     0:37    0.000000     0.87997
     0:37    0.000000     0.87997
     0:37    0.000000     0.87997
     0:37    0.000000     0.87997
     0:37    0.000000     0.87997
     0:37    0.000000     0.87997
     0:37    0.000000     0.87997
     0:37    0.000000     0.87997
     0:37    0.000000     0.87997
     0:37    0.000000     0.87997
     0:37    0.000000     0.87997
     0:37    0.000000     0.87997
     0:37    0.000000     0.87997
     0:37    0.000000     0.87997
     0:37    0.000000     0.87997
     0:37    0.000000     0.87997
     0:37    0.000000     0.87997
     0:37    0.000000     0.87997
     0:37    0.000000     0.87997
     0:37    0.000000     0.87997
     0:37    0.000000     0.87997
     0:37    0.000000     0.87997
     0:37    0.000000     0.87997
     0:37    0.000000     0.87997
     0:37    0.000000     0.87997
     0:37    0.000000     0.87997
     0:37    0.000000     0.87997
     0:37    0.000000     0.87997
     0:37    0.000000     0.87997
     0:37    0.000000     0.87997
     0:37    0.000000     0.87997
     0:37    0.000000     0.87997
     0:37    0.000000     0.87997
     0:37    0.000000     0.87997
     0:37    0.000000     0.87997
     0:37    0.000000     0.87997
     0:37    0.000000     0.87997
     0:37    0.000000     0.87997
     0:37    0.000000     0.87997
     0:37    0.000000     0.87997
     0:37    0.000000     0.87997
     0:37    0.000000     0.87997
     0:37    0.000000     0.87997
     0:37    0.000000     0.87997
     0:37    0.000000     0.87997
     0:37    0.000000     0.87997
     0:37    0.000000     0.87997
     0:37    0.000000     0.87997
     0:37    0.000000     0.87997
     0:37    0.000000     0.87997
     0:37    0.000000     0.87997
     0:37    0.000000     0.87997
     0:37    0.000000     0.87997
     0:37    0.000000     0.87997
     0:37    0.000000     0.87997
     0:38    0.000000     0.87997
     0:38    0.000000     0.87997
     0:38    0.000000     0.87997
     0:38    0.000000     0.87997
     0:38    0.000000     0.87997
     0:38    0.000000     0.87997
     0:38    0.000000     0.87997
     0:38    0.000000     0.87997
     0:38    0.000000     0.87997
     0:38    0.000000     0.87997
     0:38    0.000000     0.87997
     0:38    0.000000     0.87997
     0:38    0.000000     0.87997
     0:38    0.000000     0.87997
     0:38    0.000000     0.87997
     0:38    0.000000     0.87997
     0:38    0.000000     0.87997
     0:38    0.000000     0.87997
     0:38    0.000000     0.87997
     0:38    0.000000     0.87997
     0:38    0.000000     0.87997
     0:38    0.000000     0.87997
     0:38    0.000000     0.87997
     0:38    0.000000     0.87997
     0:38    0.000000     0.87997
     0:38    0.000000     0.87997
     0:38    0.000000     0.87997
     0:38    0.000000     0.87997
     0:38    0.000000     0.87997
     0:38    0.000000     0.87997
     0:38    0.000000     0.87997
     0:38    0.000000     0.87997
     0:38    0.000000     0.87997
     0:38    0.000000     0.87997
[...]
     0:50    0.000000     0.88000
     0:50    0.000000     0.88000
     0:50    0.000000     0.88000
     0:50    0.000000     0.88000
     0:50    0.000000     0.88000
     0:50    0.000000     0.88000
     0:50    0.000000     0.88000
     0:50    0.000000     0.88000
     0:50    0.000000     0.88000
     0:50    0.000000     0.88000
     0:50    0.000000     0.88000
     0:50    0.000000     0.88000
     0:50    0.000000     0.88000
     0:50    0.000000     0.88000
     0:50    0.000000     0.88000
     0:50    0.000000     0.88000
     0:50    0.000000     0.88000
     0:50    0.000000     0.88000
     0:50    0.000000     0.88000
     0:50    0.000000     0.88000
     0:50    0.000000     0.88000
     0:50    0.000000     0.88000
     0:50    0.000000     0.88000
     0:50    0.000000     0.88000
     0:50    0.000000     0.88000
     0:50    0.000000     0.88000
     0:50    0.000000     0.88000
     0:51    0.000000     0.88000
     0:51    0.000000     0.88000
     0:51    0.000000     0.88000
     0:51    0.000000     0.88000
     0:51    0.000000     0.88000
     0:51    0.000000     0.88000
     0:51    0.000000     0.88000
     0:51    0.000000     0.88000
     0:51    0.000000     0.88000
     0:51    0.000000     0.88000
     0:51    0.000000     0.88000
     0:51    0.000000     0.88000
     0:51    0.000000     0.88000
     0:51    0.000000     0.88000
     0:51    0.000000     0.88000
     0:51    0.000000     0.88000
     0:51    0.000000     0.88000
     0:51    0.000000     0.88000
     0:51    0.000000     0.88000
     0:51    0.000000     0.88000
     0:51    0.000000     0.88000
     0:51    0.000000     0.88000
     0:51    0.000000     0.88000
     0:51    0.000000     0.88000
     0:51    0.000000     0.88000
     0:51    0.000000     0.88000
     0:51    0.000000     0.88000
     0:51    0.000000     0.88000
     0:51    0.000000     0.88000
     0:51    0.000000     0.88000
     0:51    0.000000     0.88000
     0:51    0.000000     0.88000
     0:51    0.000000     0.88000
     0:51    0.000000     0.88000
     0:51    0.000000     0.88000
     0:51    0.000000     0.88000
     0:51    0.000000     0.88000
     0:51    0.000000     0.88000
     0:51    0.000000     0.88000
     0:51    0.000000     0.88000
     0:51    0.000000     0.88000
     0:51    0.000000     0.88000
     0:51    0.000000     0.88000
     0:51    0.000000     0.88000
     0:51    0.000000     0.88000
     0:51    0.000000     0.88000
     0:51    0.000000     0.88000
     0:51    0.000000     0.88000
     0:51    0.000000     0.88000
     0:51    0.000000     0.88000
     0:51    0.000000     0.88000
     0:51    0.000000     0.88000
     0:51    0.000000     0.88000
     0:51    0.000000     0.88000
     0:51    0.000000     0.88000
     0:51    0.000000     0.88000
     0:51    0.000000     0.88000
     0:51    0.000000     0.88000
     0:51    0.000000     0.88000
     0:51    0.000000     0.88000
     0:52    0.000000     0.88000
     0:52    0.000000     0.88000
     0:52    0.000000     0.88000
     0:52    0.000000     0.88000
     0:52    0.000000     0.88000
     0:52    0.000000     0.88000
     0:52    0.000000     0.88000
     0:52    0.000000     0.88000
     0:52    0.000000     0.88000
     0:52    0.000000     0.88000
     0:52    0.000000     0.88000
     0:52    0.000000     0.88000
     0:52    0.000000     0.88000
     0:52    0.000000     0.88000
     0:52    0.000000     0.88000
     0:52    0.000000     0.88000
     0:52    0.000000     0.88000
     0:52    0.000000     0.88000
     0:52    0.000000     0.88000
     0:52    0.000000     0.88000
     0:52    0.000000     0.88000
     0:52    0.000000     0.88000
     0:52    0.000000     0.88000
     0:52    0.000000     0.88000
     0:52    0.000000     0.88000
     0:52    0.000000     0.88000
     0:52    0.000000     0.88000
     0:52    0.000000     0.88000
     0:52    0.000000     0.88000
     0:52    0.000000     0.88000
     0:52    0.000000     0.88000
     0:52    0.000000     0.88000
     0:52    0.000000     0.88000
     0:52    0.000000     0.88000
     0:52    0.000000     0.88000
     0:52    0.000000     0.88000
     0:52    0.000000     0.88000
     0:52    0.000000     0.88000
     0:52    0.000000     0.88000
     0:52    0.000000     0.88000
     0:52    0.000000     0.88000
     0:52    0.000000     0.88000
     0:52    0.000000     0.88000
     0:52    0.000000     0.88000
     0:52    0.000000     0.88000
     0:52    0.000000     0.88000
     0:52    0.000000     0.88000
     0:52    0.000000     0.88000
     0:52    0.000000     0.88000
     0:52    0.000000     0.88000
     0:52    0.000000     0.88000
     0:52    0.000000     0.88000
     0:52    0.000000     0.88000
     0:52    0.000000     0.88000
     0:52    0.000000     0.88000
     0:52    0.000000     0.88000
     0:52    0.000000     0.88000
     0:52    0.000000     0.88000
     0:52    0.000000     0.88000
     0:52    0.000000     0.88000
     0:53    0.000000     0.88000
     0:53    0.000000     0.88000
     0:53    0.000000     0.88000
     0:53    0.000000     0.88000
     0:53    0.000000     0.88000
     0:53    0.000000     0.88000
     0:53    0.000000     0.88000
     0:53    0.000000     0.88000
     0:53    0.000000     0.88000
     0:53    0.000000     0.88000
     0:53    0.000000     0.88000
     0:53    0.000000     0.88000
     0:53    0.000000     0.88000
     0:53    0.000000     0.88000
     0:53    0.000000     0.88000
     0:53    0.000000     0.88000
     0:53    0.000000     0.88000
     0:53    0.000000     0.88000
     0:53    0.000000     0.88000
     0:53    0.000000     0.88000
     0:53    0.000000     0.88000
     0:53    0.000000     0.88000
     0:53    0.000000     0.88000
     0:53    0.000000     0.88000
     0:53    0.000000     0.88000
     0:53    0.000000     0.88000
     0:53    0.000000     0.88000
     0:53    0.000000     0.88000
     0:53    0.000000     0.88000
     0:53    0.000000     0.88000
     0:53    0.000000     0.88000
     0:53    0.000000     0.88000
     0:53    0.000000     0.88000
     0:53    0.000000     0.88000
     0:53    0.000000     0.88000
     0:53    0.000000     0.88000
     0:53    0.000000     0.88000
     0:53    0.000000     0.88000
     0:53    0.000000     0.88000
     0:53    0.000000     0.88000
     0:53    0.000000     0.88000
     0:53    0.000000     0.88000
     0:53    0.000000     0.88000
     0:53    0.000000     0.88000
     0:53    0.000000     0.88000
     0:53    0.000000     0.88000
     0:53    0.000000     0.88000
     0:53    0.000000     0.88000
     0:53    0.000000     0.88000
     0:53    0.000000     0.88000
     0:53    0.000000     0.88000
     0:53    0.000000     0.88000
     0:53    0.000000     0.88000
     0:53    0.000000     0.88000
     0:53    0.000000     0.88000
     0:53    0.000000     0.88000
     0:53    0.000000     0.88000
     0:53    0.000000     0.88000
     0:53    0.000000     0.88000
     0:53    0.000000     0.88000
     0:54    0.000000     0.88000
     0:54    0.000000     0.88000
     0:54    0.000000     0.88000
     0:54    0.000000     0.88000
     0:54    0.000000     0.88000
     0:54    0.000000     0.88000
     0:54    0.000000     0.88000
     0:54    0.000000     0.88000
     0:54    0.000000     0.88000
     0:54    0.000000     0.88000
     0:54    0.000000     0.88000
     0:54    0.000000     0.88000
     0:54    0.000000     0.88000
     0:54    0.000000     0.88000
     0:54    0.000000     0.88000
     0:54    0.000000     0.88000
     0:54    0.000000     0.88000
     0:54    0.000000     0.88000
     0:54    0.000000     0.88000
     0:54    0.000000     0.88000
     0:54    0.000000     0.88000
     0:54    0.000000     0.88000
     0:54    0.000000     0.88000
     0:54    0.000000     0.88000
     0:54    0.000000     0.88000
     0:54    0.000000     0.88000
     0:54    0.000000     0.88000
     0:54    0.000000     0.88000
     0:54    0.000000     0.88000
     0:54    0.000000     0.88000
     0:54    0.000000     0.88000
     0:54    0.000000     0.88000
     0:54    0.000000     0.88000
     0:54    0.000000     0.88000
     0:54    0.000000     0.88000
     0:54    0.000000     0.88000
     0:54    0.000000     0.88000
     0:54    0.000000     0.88000
     0:54    0.000000     0.88000
     0:54    0.000000     0.88000
     0:54    0.000000     0.88000
     0:54    0.000000     0.88000
     0:54    0.000000     0.88000
     0:54    0.000000     0.88000
     0:54    0.000000     0.88000
     0:54    0.000000     0.88000
     0:54    0.000000     0.88000
     0:54    0.000000     0.88000
     0:54    0.000000     0.88000
     0:54    0.000000     0.88000
     0:54    0.000000     0.88000
     0:54    0.000000     0.88000
     0:54    0.000000     0.88000
     0:54    0.000000     0.88000
     0:54    0.000000     0.88000
     0:54    0.000000     0.88000
     0:54    0.000000     0.88000
     0:54    0.000000     0.88000
     0:54    0.000000     0.88000
     0:54    0.000000     0.88000
     0:55    0.000000     0.88000
     0:55    0.000000     0.88000
     0:55    0.000000     0.88000
     0:55    0.000000     0.88000
     0:55    0.000000     0.88000
     0:55    0.000000     0.88000
     0:55    0.000000     0.88000
     0:55    0.000000     0.88000
     0:55    0.000000     0.88000
     0:55    0.000000     0.88000
     0:55    0.000000     0.88000
     0:55    0.000000     0.88000
     0:55    0.000000     0.88000
     0:55    0.000000     0.88000
     0:55    0.000000     0.88000
     0:55    0.000000     0.88000
     0:55    0.000000     0.88000
     0:55    0.000000     0.88000
     0:55    0.000000     0.88000
     0:55    0.000000     0.88000
     0:55    0.000000     0.88000
     0:55    0.000000     0.88000
     0:55    0.000000     0.88000
     0:55    0.000000     0.88000
     0:55    0.000000     0.88000
     0:55    0.000000     0.88000
     0:55    0.000000     0.88000
     0:55    0.000000     0.88000
     0:55    0.000000     0.88000
     0:55    0.000000     0.88000
     0:55    0.000000     0.88000
     0:55    0.000000     0.88000
     0:55    0.000000     0.88000
     0:55    0.000000     0.88000
     0:55    0.000000     0.88000
     0:55    0.000000     0.88000
     0:55    0.000000     0.88000
     0:55    0.000000     0.88000
     0:55    0.000000     0.88000
     0:55    0.000000     0.88000
     0:55    0.000000     0.88000
     0:55    0.000000     0.88000
     0:55    0.000000     0.88000
     0:55    0.000000     0.88000
     0:55    0.000000     0.88000
     0:55    0.000000     0.88000
     0:55    0.000000     0.88000
     0:55    0.000000     0.88000
     0:55    0.000000     0.88000
     0:55    0.000000     0.88000
     0:55    0.000000     0.88000
     0:55    0.000000     0.88000
     0:55    0.000000     0.88000
     0:55    0.000000     0.88000
     0:55    0.000000     0.88000
     0:55    0.000000     0.88000
     0:55    0.000000     0.88000
     0:55    0.000000     0.88000
     0:55    0.000000     0.88000
     0:55    0.000000     0.88000
     0:56    0.000000     0.88000
     0:56    0.000000     0.88000
     0:56    0.000000     0.88000
     0:56    0.000000     0.88000
     0:56    0.000000     0.88000
     0:56    0.000000     0.88000
     0:56    0.000000     0.88000
     0:56    0.000000     0.88000
     0:56    0.000000     0.88000
     0:56    0.000000     0.88000
     0:56    0.000000     0.88000
     0:56    0.000000     0.88000
     0:56    0.000000     0.88000
     0:56    0.000000     0.88000
     0:56    0.000000     0.88000
     0:56    0.000000     0.88000
     0:56    0.000000     0.88000
     0:56    0.000000     0.88000
     0:56    0.000000     0.88000
     0:56    0.000000     0.88000
     0:56    0.000000     0.88000
     0:56    0.000000     0.88000
     0:56    0.000000     0.88000
     0:56    0.000000     0.88000
     0:56    0.000000     0.88000
     0:56    0.000000     0.88000
     0:56    0.000000     0.88000
     0:56    0.000000     0.88000
     0:56    0.000000     0.88000
     0:56    0.000000     0.88000
     0:56    0.000000     0.88000
     0:56    0.000000     0.88000
     0:56    0.000000     0.88000
     0:56    0.000000     0.88000
     0:56    0.000000     0.88000
     0:56    0.000000     0.88000
     0:56    0.000000     0.88000
     0:56    0.000000     0.88000
     0:56    0.000000     0.88000
     0:56    0.000000     0.88000
     0:56    0.000000     0.88000
     0:56    0.000000     0.88000
     0:56    0.000000     0.88000
     0:56    0.000000     0.88000
     0:56    0.000000     0.88000
     0:56    0.000000     0.88000
     0:56    0.000000     0.88000
     0:56    0.000000     0.88000
     0:56    0.000000     0.88000
     0:56    0.000000     0.88000
     0:56    0.000000     0.88000
     0:56    0.000000     0.88000
     0:56    0.000000     0.88000
     0:56    0.000000     0.88000
     0:56    0.000000     0.88000
     0:56    0.000000     0.88000
     0:56    0.000000     0.88000
     0:56    0.000000     0.88000
     0:56    0.000000     0.88000
     0:56    0.000000     0.88000
     0:57    0.000000     0.88000
     0:57    0.000000     0.88000
     0:57    0.000000     0.88000
     0:57    0.000000     0.88000
     0:57    0.000000     0.88000
     0:57    0.000000     0.88000
     0:57    0.000000     0.88000
     0:57    0.000000     0.88000
     0:57    0.000000     0.88000
     0:57    0.000000     0.88000
     0:57    0.000000     0.88000
     0:57    0.000000     0.88000
     0:57    0.000000     0.88000
     0:57    0.000000     0.88000
     0:57    0.000000     0.88000
     0:57    0.000000     0.88000
     0:57    0.000000     0.88000
     0:57    0.000000     0.88000
     0:57    0.000000     0.88000
     0:57    0.000000     0.88000
     0:57    0.000000     0.88000
     0:57    0.000000     0.88000
     0:57    0.000000     0.88000
     0:57    0.000000     0.88000
     0:57    0.000000     0.88000
     0:57    0.000000     0.88000
     0:57    0.000000     0.88000
     0:57    0.000000     0.88000
     0:57    0.000000     0.88000
     0:57    0.000000     0.88000
     0:57    0.000000     0.88000
     0:57    0.000000     0.88000
     0:57    0.000000     0.88000
     0:57    0.000000     0.88000
     0:57    0.000000     0.88000
     0:57    0.000000     0.88000
     0:57    0.000000     0.88000
     0:57    0.000000     0.88000
     0:57    0.000000     0.88000
     0:57    0.000000     0.88000
     0:57    0.000000     0.88000
     0:57    0.000000     0.88000
     0:57    0.000000     0.88000
     0:57    0.000000     0.88000
     0:57    0.000000     0.88000
     0:57    0.000000     0.88000
     0:57    0.000000     0.88000
     0:57    0.000000     0.88000
     0:57    0.000000     0.88000
     0:57    0.000000     0.88000
     0:57    0.000000     0.88000
     0:57    0.000000     0.88000
     0:57    0.000000     0.88000
     0:57    0.000000     0.88000
     0:57    0.000000     0.88000
     0:57    0.000000     0.88000
     0:57    0.000000     0.88000
     0:57    0.000000     0.88000
     0:57    0.000000     0.88000
     0:57    0.000000     0.88000
     0:58    0.000000     0.88000
     0:58    0.000000     0.88000
     0:58    0.000000     0.88000
     0:58    0.000000     0.88000
     0:58    0.000000     0.88000
     0:58    0.000000     0.88000
     0:58    0.000000     0.88000
     0:58    0.000000     0.88000
     0:58    0.000000     0.88000
     0:58    0.000000     0.88000
     0:58    0.000000     0.88000
     0:58    0.000000     0.88000
     0:58    0.000000     0.88000
     0:58    0.000000     0.88000
     0:58    0.000000     0.88000
     0:58    0.000000     0.88000
     0:58    0.000000     0.88000
     0:58    0.000000     0.88000
     0:58    0.000000     0.88000
     0:58    0.000000     0.88000
     0:58    0.000000     0.88000
     0:58    0.000000     0.88000
     0:58    0.000000     0.88000
     0:58    0.000000     0.88000
     0:58    0.000000     0.88000
     0:58    0.000000     0.88000
     0:58    0.000000     0.88000
     0:58    0.000000     0.88000
     0:58    0.000000     0.88000
     0:58    0.000000     0.88000
     0:58    0.000000     0.88000
     0:58    0.000000     0.88000
     0:58    0.000000     0.88000
     0:58    0.000000     0.88000
     0:58    0.000000     0.88000
     0:58    0.000000     0.88000
     0:58    0.000000     0.88000
     0:58    0.000000     0.88000
     0:58    0.000000     0.88000
     0:58    0.000000     0.88000
     0:58    0.000000     0.88000
     0:58    0.000000     0.88000
     0:58    0.000000     0.88000
     0:58    0.000000     0.88000
     0:58    0.000000     0.88000
     0:58    0.000000     0.88000
     0:58    0.000000     0.88000
     0:58    0.000000     0.88000
     0:58    0.000000     0.88000
     0:58    0.000000     0.88000
     0:58    0.000000     0.88000
     0:58    0.000000     0.88000
     0:58    0.000000     0.88000
     0:58    0.000000     0.88000
     0:58    0.000000     0.88000
     0:58    0.000000     0.88000
     0:58    0.000000     0.88000
     0:58    0.000000     0.88000
     0:58    0.000000     0.88000
     0:58    0.000000     0.88000
     0:59    0.000000     0.88000
     0:59    0.000000     0.88000
     0:59    0.000000     0.88000
     0:59    0.000000     0.88000
     0:59    0.000000     0.88000
     0:59    0.000000     0.88000
     0:59    0.000000     0.88000
     0:59    0.000000     0.88000
     0:59    0.000000     0.88000
     0:59    0.000000     0.88000
     0:59    0.000000     0.88000
     0:59    0.000000     0.88000
     0:59    0.000000     0.88000
     0:59    0.000000     0.88000
     0:59    0.000000     0.88000
     0:59    0.000000     0.88000
     0:59    0.000000     0.88000
     0:59    0.000000     0.88000
     0:59    0.000000     0.88000
     0:59    0.000000     0.88000
     0:59    0.000000     0.88000
     0:59    0.000000     0.88000
     0:59    0.000000     0.88000
     0:59    0.000000     0.88000
     0:59    0.000000     0.88000
     0:59    0.000000     0.88000
     0:59    0.000000     0.88000
     0:59    0.000000     0.88000
     0:59    0.000000     0.88000
     0:59    0.000000     0.88000
     0:59    0.000000     0.88000
     0:59    0.000000     0.88000
     0:59    0.000000     0.88000
     0:59    0.000000     0.88000
     0:59    0.000000     0.88000
     0:59    0.000000     0.88000
     0:59    0.000000     0.88000
     0:59    0.000000     0.88000
     0:59    0.000000     0.88000
     0:59    0.000000     0.88000
     0:59    0.000000     0.88000
     0:59    0.000000     0.88000
     0:59    0.000000     0.88000
     0:59    0.000000     0.88000
     0:59    0.000000     0.88000
     0:59    0.000000     0.88000
     0:59    0.000000     0.88000
     0:59    0.000000     0.88000
     0:59    0.000000     0.88000
     0:59    0.000000     0.88000
     0:59    0.000000     0.88000
     0:59    0.000000     0.88000
     0:59    0.000000     0.88000
     0:59    0.000000     0.88000
     0:59    0.000000     0.88000
     0:59    0.000000     0.88000
     0:59    0.000000     0.88000
     0:59    0.000000     0.88000
     0:59    0.000000     0.88000
     0:59    0.000000     0.88000
     1:00    0.000000     0.88000
  Water Quality Mass Balance: Nx (MG)
  ================================
  Initial Mass:       0.00000e+00
  Mass Inflow:        0.00000e+00
  Mass Outflow:       0.00000e+00
  Mass Reacted:       0.00000e+00
  Final Mass:         0.00000e+00
  Mass Ratio:         1.00000
  ================================

  Water Quality Mass Balance: HOCL (MG)
  ================================
  Initial Mass:       1.54272e+03
  Mass Inflow:        4.42833e+03
  Mass Outflow:       4.42622e+03
  Mass Reacted:      -2.77078e+00
  Final Mass:         1.54206e+03
  Mass Ratio:         1.00000
  ================================

  
  Analysis ended Mon Apr 17 12:06:38 2023
